<?xml version="1.0" encoding="UTF-8"?>

<!-- generated on 02/25/21 00:36:49 by Eclipse SUMO polyconvert Version v1_8_0+0719-6455967092
<configuration xmlns:xsi="http://www.w3.org/2001/XMLSchema-instance" xsi:noNamespaceSchemaLocation="http://sumo.dlr.de/xsd/polyconvertConfiguration.xsd">

    <input>
        <net-file value="../../data/simulations/20210225_0033_VALLES_OCCIDENTAL/VALLES_OCCIDENTAL.net.xml"/>
        <shapefile-prefixes value="..\..\data\ATM\proc\shp\EMO96_IDESCAT_VALLES_OCCIDENTAL\EMO96_VALLES_OCCIDENTAL"/>
        <shapefile.id-column value="CZT"/>
    </input>

    <output>
        <output-file value="..\..\data\ATM\proc\shp\EMO96_IDESCAT_VALLES_OCCIDENTAL\EMO96_VALLES_OCCIDENTAL.poly.xml"/>
    </output>

    <projection>
        <proj.utm value="true"/>
    </projection>

    <processing>
        <offset.x value="0"/>
        <offset.y value="0"/>
    </processing>

</configuration>
-->

<additional xmlns:xsi="http://www.w3.org/2001/XMLSchema-instance" xsi:noNamespaceSchemaLocation="http://sumo.dlr.de/xsd/additional_file.xsd">
    <location netOffset="-403533.84,-4584000.34" convBoundary="0.00,0.00,33178.04,39421.76" origBoundary="1.842258,41.403923,2.243490,41.758393" projParameter="+proj=utm +zone=31 +ellps=WGS84 +datum=WGS84 +units=m +no_defs"/>

    <poly id="08051001" type="unknown" color="51,128,255" fill="1" layer="-1.00" shape="20733.614100,28432.929614 20744.564167,28424.549709 20782.633547,28330.590906 20798.833651,28260.571537 20806.973359,28137.182757 20819.863381,28034.033755 20866.073018,27893.285239 20913.092647,27806.525739 20975.372267,27721.026547 21023.101524,27685.237161 21033.751486,27669.847080 21046.771438,27660.377166 21069.251114,27656.827562 21128.400404,27667.477109 21162.720415,27658.417298 21215.699692,27632.627687 21234.319467,27603.977998 21245.779439,27560.278108 21244.339641,27535.918379 21297.329121,27467.159040 21318.088995,27434.199426 21366.778195,27272.671085 21394.698299,27239.721664 21404.007976,27216.081768 21407.587887,27178.832184 21405.438029,27139.432591 21396.848192,27122.962688 21381.818098,27107.202423 21355.318839,27091.792940 21346.018938,27078.902940 21343.148685,27028.043384 21348.878463,26989.363765 21362.938317,26961.923843 21427.638179,26891.224998 21453.417617,26859.705188 21463.437361,26819.595392 21477.037573,26780.195943 21481.337315,26740.076521 21500.787488,26667.616947 21509.067463,26627.367431 21510.247094,26563.747971 21323.319405,25876.654702 21326.759040,25792.755547 21341.968800,25690.736475 21406.728585,25422.038839 21446.088284,25311.920011 21558.527052,25095.742436 21605.776570,25025.542869 21687.456144,24705.996016 21761.125115,24495.528101 21824.644813,24333.519594 22007.153214,24094.642236 22210.351254,23918.913797 22585.777309,23678.486119 22658.096602,23687.796231 22686.736672,23681.346071 22711.076302,23670.606511 22776.955779,23598.967145 22824.925120,23562.617607 22852.135158,23538.977716 22869.314564,23502.447966 22878.624662,23495.997802 22968.623791,23391.239001 22935.184281,23402.878737 22903.684282,23405.029163 22884.354452,23400.728859 22877.194790,23391.419187 22845.685031,23360.789067 22822.055468,23357.209301 22772.655536,23339.299728 22754.035914,23322.829824 22715.376116,23299.189918 22702.486687,23284.139858 22694.616256,23268.380161 22668.836830,23246.180486 22645.386907,23236.510541 22633.937281,23223.610773 22600.277659,23175.620908 22568.057834,23154.131437 22560.187968,23146.251375 22533.698344,23093.241947 22529.398052,23058.862060 22519.378322,23035.932365 22491.448466,23000.122861 22482.138379,22958.212989 22746.696060,22607.026461 22767.466127,22569.067101 22809.705858,22451.588305 22864.834873,22367.959116 22900.634612,22332.859265 22957.204413,22286.300022 22980.114151,22260.509838 22985.843925,22237.590339 22988.704003,22208.930313 22977.963882,22158.791153 22975.851394,22129.942284 22972.953959,22090.381455 22975.814039,22053.131871 22985.843976,22006.572476 22982.264078,21983.642783 22980.114224,21925.263154 22975.103866,21903.773689 22949.324445,21859.363728 22935.004418,21824.974071 22914.954764,21793.464302 22909.944829,21777.704605 22929.274676,21704.635193 22932.144524,21660.576024 22952.904404,21600.406378 22952.904409,21578.206709 22935.004488,21505.137430 22932.854625,21489.377593 22955.774705,21427.418067 22913.235051,21352.478922 22911.374967,21307.068989 22900.634851,21236.869835 22905.654989,21198.910047 22906.365060,21165.950428 22887.755073,21104.881162 22902.075113,21078.381338 22935.004602,20983.112402 22935.724440,20950.872473 22929.994819,20920.792884 22916.394620,20898.583020 22894.914929,20871.363216 22880.595471,20826.233993 22878.445045,20794.714036 22882.735161,20753.884409 22882.025533,20705.174862 22894.325095,20664.705648 22868.365465,20637.235566 22721.056778,20640.345458 22670.937156,20628.885909 22425.769839,20590.666022 22349.560343,20598.155927 22183.351875,20640.345340 22125.922530,20658.815466 21972.844128,20782.184251 21912.704643,20714.844591 21938.484086,20656.105548 21948.504396,20617.785775 21955.664209,20579.095823 21949.934445,20554.746428 21964.254495,20483.117243 21981.444097,20428.677366 21975.713906,20415.777599 21901.244749,20402.887585 21942.774267,20322.658515 22015.803637,20263.919341 22027.263605,20238.129156 21835.375653,20258.189108 21846.835626,20212.339352 21856.855379,20127.820311 21799.575953,20117.790371 21734.996444,20071.661019 21674.087005,20053.741251 21641.067363,20054.961347 21536.818589,20010.691654 21546.838320,20029.321049 21551.138472,20052.241116 21539.678502,20086.620434 21521.058728,20116.710493 21468.159008,20141.150049 21433.709329,20151.089936 21399.339634,20151.089928 21366.410168,20143.930116 21329.170212,20125.310341 21263.230877,20096.400588 21170.241888,20106.740227 21168.992066,20072.540545 21160.191875,20039.840970 21142.592055,19994.561693 21128.692457,19977.741571 21059.963260,19969.151858 20835.134953,19931.902082 20667.956811,19932.612249 20637.122850,19933.661341 20568.357836,19936.002156 20551.857784,19930.882081 20532.278108,19898.232191 20517.958075,19893.212624 20502.208711,19901.092255 20459.958807,19933.332034 20437.768904,19936.191958 20421.299147,19928.311895 20400.529518,19902.522127 20379.049829,19865.992935 20380.669703,19835.552654 20389.259551,19805.463301 20390.689449,19785.403307 20383.529793,19753.883914 20372.069834,19736.693614 20360.620066,19729.533949 20348.449904,19705.894049 20347.730081,19670.794756 20339.139818,19660.044431 20317.660121,19657.904752 20296.890494,19629.244862 20282.570465,19605.604961 20258.230831,19632.824614 20241.050717,19673.654238 20178.751710,19737.053982 20150.111772,19786.483636 20119.512357,19870.832660 20105.192318,19894.472553 20091.582485,19907.361982 20075.112583,19916.672074 20059.362654,19918.821937 20038.602786,19925.991929 20021.413053,19930.282032 20001.373018,19930.282028 19946.233689,19925.272077 19865.334468,19909.512364 19844.564835,19902.352130 19801.965286,19897.331990 19782.635455,19899.482277 19777.335319,19905.322178 19770.465286,19907.361910 19759.725717,19920.971736 19738.955655,19936.011596 19706.026039,19966.821482 19698.866373,19979.711478 19698.145973,19994.041138 19703.876163,20006.931137 19707.456062,20021.620784 19700.296398,20027.350975 19685.256531,20036.660643 19610.077157,20073.910352 19435.738773,20129.070024 19382.039245,20136.949648 19343.379442,20137.659702 19323.329781,20134.079937 19291.820014,20139.099494 19270.340314,20151.269656 19258.890543,20154.139351 19248.860617,20151.989482 19233.110549,20141.959410 19218.081019,20135.509807 19201.611119,20132.649873 19180.841059,20138.379638 19145.761579,20155.569361 19113.181896,20196.399406 19088.122294,20207.149157 19070.942329,20210.729056 19055.192259,20211.448883 18948.503281,20162.019340 18895.524015,20141.249836 18838.244587,20139.099390 18771.035030,20143.949492 18736.725211,20154.069584 18706.215986,20166.739450 18668.046256,20197.198974 18563.667216,20290.057982 18513.547576,20358.827653 18494.927790,20436.906861 18370.348631,20439.776530 18337.708929,20470.206470 18376.378886,20636.394971 18362.769056,20636.934593 18343.618863,20643.924805 18337.889091,20656.814377 18337.179019,20695.493997 18324.999079,20715.553989 18272.739773,20748.503403 18215.460337,20780.743178 18207.580274,20790.762910 18205.430404,20807.962833 18206.150227,20839.472598 18217.600412,20884.962373 18223.330173,20917.202162 18222.620102,20953.731490 18212.590023,20996.711407 18198.270548,21028.230795 18172.680515,21066.020706 18149.761008,21093.949997 18120.410871,21119.030115 18055.251929,21197.819376 18013.012216,21231.488765 17980.792380,21263.718353 17934.962713,21297.388166 17857.103605,21374.217530 17836.343731,21407.886924 17834.193862,21420.067283 17834.193852,21463.046636 17831.323585,21473.786201 17822.733884,21484.536664 17808.413847,21498.146490 17757.584578,21522.495872 17744.694580,21521.065975 17703.884909,21528.226194 17666.645506,21566.915573 17638.005429,21605.595187 17606.146145,21634.064667 17581.806375,21639.794997 17565.336470,21656.274519 17553.166302,21659.854419 17538.846409,21661.284451 17508.776871,21661.284444 17491.587139,21663.434731 17475.837207,21678.484360 17464.387432,21699.974246 17456.507370,21706.414218 17444.337767,21711.434345 17407.108000,21710.713939 17390.638098,21715.014093 17378.468069,21727.194025 17348.748167,21797.033184 17312.238786,21844.312828 17277.149253,21872.242683 17257.819421,21877.262242 17239.919484,21877.262238 17224.169553,21890.152232 17181.210145,21944.591679 17141.110677,21958.921330 17068.321246,22032.460707 17033.001254,22055.630476 17013.181479,22085.560289 16929.772381,22167.629482 16869.802887,22194.519434 16839.473298,22218.658888 16811.893644,22256.588518 16936.662187,22355.897745 16939.372197,22390.767571 16949.071852,22446.937031 16979.401981,22532.445868 16984.911473,22579.345717 17018.131241,22740.333741 17041.271415,22821.673361 17036.841017,22842.343194 17017.651465,22870.402580 17010.271669,22901.412496 16976.321692,22926.522340 16915.812146,22963.441793 16883.332693,22975.251967 16754.923775,22990.021422 16731.734033,23005.371580 16713.124434,23107.090686 16682.894775,23176.599586 16654.974656,23274.988640 16680.034642,23439.487059 16538.045619,23466.376991 16374.307501,23531.176029 16359.987590,23608.545600 16318.438099,23734.784107 16307.997908,23837.483233 16280.447981,23878.832945 16259.778275,23931.672348 16200.088738,24159.080003 16110.539762,24285.428632 16128.959753,24434.617373 16125.019421,24512.716545 16102.469661,24566.855891 16018.370334,24582.645860 15784.323063,24670.145247 15744.213385,24754.674050 15530.845028,24758.974299 15483.595471,24986.761903 15464.975835,25026.871554 15434.906289,25059.820974 15395.366401,25092.130967 15350.416811,25125.370722 15293.137372,25162.620293 15313.187165,25205.599792 15333.236812,25267.198918 15333.236799,25323.078603 15314.627346,25403.657897 15346.126760,25478.157216 15414.855935,25584.536062 15463.545646,25666.205382 15507.935064,25720.644850 15586.694197,25699.154838 15658.293638,25793.703969 15758.532598,25822.364021 15839.652084,25852.793422 16085.459669,26524.446937 16303.037430,27184.101001 16414.736347,27237.110308 16495.415428,27323.409769 16523.564981,27371.778872 16585.144673,27533.677417 16588.004585,27609.606765 16603.754062,27724.935709 17012.080328,27930.133755 17124.979389,27979.943106 17217.588423,28015.733233 17310.207368,28046.432874 17485.275892,28115.442259 17711.033391,28199.511340 17785.502545,28233.890820 17845.642043,28252.511026 17910.081694,28286.900696 17955.910927,28294.060511 18016.050282,28316.980450 18061.880089,28294.060535 18110.559494,28258.240856 18136.339493,28251.081057 18177.138829,28253.950905 18291.697673,28322.710282 18390.506603,28331.310338 18499.346029,28327.010063 18533.705531,28335.610104 18563.785253,28374.289731 18576.664912,28398.649463 18614.674387,28416.419314 18664.024061,28450.219102 18754.233522,28467.408854 18835.132311,28529.018327 18952.411363,28609.637573 19008.040763,28654.737221 19128.329783,28806.595943 19198.498773,28868.195080 19284.008031,28873.045358 19411.456862,28997.864063 19517.925733,28978.934163 19626.304945,28989.974284 19652.084362,29053.013639 19759.483560,29048.713505 19781.163423,29049.943805 19807.182937,29061.783720 19956.261664,29170.672296 20128.989799,29170.672335 20235.969132,29166.192420 20292.258353,29161.212788 20316.168068,29146.133009 20403.467370,29054.683504 20467.956742,28942.694820 20482.276644,28904.015060 20529.526163,28829.515759 20586.815378,28753.586425 20589.675317,28713.477193 20578.215940,28627.517917 20619.745448,28597.427862 20654.115151,28567.338514 20669.865089,28527.228861 20689.774622,28458.729560 20733.614100,28432.929614"/>
    <poly id="08054001" type="unknown" color="51,128,255" fill="1" layer="-1.00" shape="8869.344144,7682.528191 8792.574670,7575.488971 8724.785444,7518.289934 8670.065992,7482.340138 8626.786547,7428.420479 8525.317352,7193.303033 8500.007484,7158.983020 8459.987867,7136.923203 8388.928588,7175.332990 8316.249292,7248.862170 8240.299960,7350.181349 8169.240669,7435.970161 8121.061387,7503.789539 8074.101633,7606.958627 7992.442632,7713.987472 7958.132803,7766.277052 7909.952961,7813.666823 7861.763495,7848.806022 7843.803673,7872.496025 7823.383826,7904.365628 7798.273933,8055.734369 7784.394287,8072.893944 7758.254445,8078.613938 7715.784985,8096.593702 7671.685181,8123.553726 7631.665691,8150.513327 7612.065900,8177.483268 7608.806055,8210.162879 7619.415662,8237.942690 7628.405681,8277.161936 7616.155800,8334.351326 7575.316381,8424.450638 7523.046877,8482.460214 7497.727082,8518.409989 7497.642146,8518.499455 7468.327397,8549.459393 7424.227736,8569.069215 7407.897548,8596.028823 7402.178089,8686.327885 7416.067901,8768.027486 7442.197682,8800.716732 7487.926943,8915.105721 7471.597305,9006.615116 7435.257502,9088.734004 7386.258019,9173.713384 7325.828733,9230.902619 7274.749047,9255.912516 7215.569600,9277.482370 7180.760073,9301.871816 7091.440875,9328.131533 6951.782066,9373.890937 6898.692659,9388.601095 6802.133530,9428.030813 6716.384038,9469.700007 6684.534386,9477.869972 6604.495265,9535.069536 6534.256170,9619.228714 6491.796322,9691.128126 6475.456501,9743.837435 6455.036626,9874.566214 6440.336616,9988.955047 6443.606763,10072.514173 6441.156899,10197.522956 6451.546784,10300.451834 6464.846304,10337.241776 6481.176338,10356.851615 6538.345759,10412.410822 6567.745426,10446.730836 6596.325040,10475.320231 6614.295046,10482.680064 6646.144696,10483.490077 6664.114702,10489.210083 6686.474612,10506.039975 6701.164277,10435.401002 6746.853667,10367.381459 6761.343577,10349.541548 6769.143379,10327.242083 6791.433653,10300.482076 6803.693292,10278.182187 6819.303079,10265.912224 6836.022690,10267.032532 6851.622704,10273.722221 6871.682699,10275.952498 6900.662087,10267.032549 6927.411768,10261.452841 6955.271983,10262.572585 6980.911690,10275.952527 7045.551076,10316.091926 7062.270830,10312.741921 7077.870704,10317.201904 7151.430049,10352.891519 7164.809557,10366.271600 7173.719742,10380.761507 7174.839475,10397.491452 7172.609765,10413.101235 7179.299443,10436.511098 7213.849476,10472.200844 7221.649125,10488.920457 7245.059122,10516.800213 7255.088619,10536.869836 7281.558710,10568.649844 7297.158149,10609.899341 7313.878320,10634.428944 7351.768030,10661.198593 7361.797529,10674.578672 7366.257494,10725.868285 7371.827439,10737.017949 7369.597726,10762.667851 7375.177437,10778.277635 7416.647043,10831.524603 7436.696695,10867.436877 7439.566954,10883.916545 7440.996974,10942.656159 7437.417066,10964.145621 7430.256830,10989.925614 7403.767175,11065.144888 7402.327503,11105.974373 7410.206985,11150.383762 7468.916411,11292.222872 7482.526235,11309.412606 7514.746198,11335.202236 7583.475388,11361.702080 7610.624828,11379.251804 7628.585206,11393.941879 7640.044598,11408.981746 7650.064892,11435.491342 7659.374409,11483.841045 7670.824739,11508.910414 7679.984339,11575.290146 7682.284108,11608.479657 7688.574582,11658.269162 7711.643965,11768.937818 7724.523764,11795.437647 7735.833662,11834.487589 7750.103502,11609.119666 8070.570517,11581.789959 8912.362482,11826.837587 9644.455347,12032.195962 9667.365073,12056.545927 9667.365064,12093.795652 9693.144627,12125.315049 9737.534449,12248.524197 9856.132998,12224.164500 10197.849825,12168.794801 10381.938109,12189.784606 10400.187702,12171.164986 10458.897167,12165.435232 10506.156844,12225.604327 10527.466517,12267.104103 10526.206475,12344.513169 10503.296731,12388.922551 10513.386668,12435.242289 10599.355670,12588.050722 10789.324277,12863.848193 10781.764134,12896.717777 10788.594099,12917.217599 10807.943883,12939.787309 10823.693378,12974.167341 10832.293409,12978.467076 10865.223447,12961.277353 10983.832173,13000.367101 11036.201566,13146.155724 11268.989155,13367.743643 11341.358779,13058.336295 11445.457799,12464.632574 11448.031495,12463.983382 11788.394594,12378.163350 11795.294222,12341.293573 11812.483962,12304.043852 11815.344053,12226.674706 11833.964257,12177.965165 11855.443971,12110.635718 11854.014090,12054.766368 11842.553998,12009.277019 11861.173777,11961.997372 11852.573900,11904.687793 11854.014139,11863.138335 11849.713859,11785.778955 11838.253903,11759.989189 11831.094106,11728.469798 11833.964384,11671.520066 11849.713906,11597.030954 11859.734210,11584.130766 11851.143952,11555.481072 11861.173895,11492.441587 11859.734249,11428.332757 11864.033987,11406.842728 11882.653621,11372.453080 11915.583662,11343.803395 11921.313438,11313.713476 11915.583682,11263.574319 11939.933224,11237.784562 11931.333205,11181.915211 11941.003295,11152.545123 11930.973235,11118.155326 11936.703585,11059.416281 11925.593294,10981.776752 11940.813369,10962.837065 11938.103356,10942.197100 11927.283389,10925.287372 11928.973479,10891.797755 11938.103378,10854.927979 11941.143095,10829.218198 11955.393490,10794.668728 11954.943476,10777.954213 11945.443410,10768.969136 11944.033339,10749.578860 11949.173237,10717.709253 11979.992770,10663.240078 12000.542710,10635.490002 12010.812868,10618.020269 12027.252479,10598.490703 12033.412310,10582.040765 12024.172436,10550.180922 12020.062542,10520.371572 12021.082490,10479.261940 12026.222389,10439.181873 12044.712638,10403.202509 12044.712640,10394.982423 12039.582522,10379.562612 12032.382808,10338.452978 12031.362454,10305.563432 12034.442515,10281.923679 12052.932199,10239.783922 12042.662620,10208.444169 12027.252582,10186.854336 12013.892618,10140.604811 12016.972823,10106.685137 12021.082586,10096.415551 12045.742285,10071.745673 12063.202400,10050.155848 12064.232539,10015.216235 12062.182475,10000.826696 12053.962395,9977.186798 12049.852641,9952.516771 12054.992536,9929.907147 12072.452089,9893.937409 12112.521980,9839.208192 12124.842065,9816.598003 12131.011667,9784.738589 12134.091737,9725.129093 12162.861339,9697.379444 12173.131355,9680.929648 12162.861378,9540.120682 12183.401549,9518.541191 12183.401561,9469.201706 12191.621091,9429.121781 12266.620850,9287.803504 12324.150137,9260.053862 12427.419053,9215.444336 12558.227557,9146.184750 12562.352750,9135.939654 12580.267419,9091.445335 12607.727313,9054.276023 12639.067072,9024.536188 12659.096782,8985.756209 12678.486698,8727.738828 12662.327114,8657.609322 12659.096872,8625.279927 12659.096906,8489.531154 12662.976785,8441.691919 12715.316518,8318.542677 12719.186198,8297.213036 12691.406980,8194.754132 12680.377117,8029.395608 12681.073875,8023.787156 12682.436815,8012.825909 12806.415540,7741.438387 13207.931683,7719.399064 13202.721739,7647.209301 13216.941837,7626.079827 13233.751622,7627.809832 13254.011353,7643.329447 13272.111312,7647.639376 13275.131066,7634.709460 13280.731324,7565.280396 13290.221209,7531.221004 13308.320755,7489.390980 13341.940921,7366.932545 13362.630581,7333.302647 13419.519880,7291.043141 13427.279759,7277.243341 13433.319693,7246.193365 13447.969430,7199.424182 13456.589437,7141.644488 13454.869643,7081.275241 13436.759939,6986.415829 13434.180025,6945.016425 13439.199642,6728.928445 13436.740057,6672.189070 13412.080230,6645.059581 13335.811004,6625.119328 13286.241200,6625.199722 13190.882088,6608.819406 13156.612769,6570.529918 13143.682861,6529.130511 13140.742959,6495.581014 13125.083064,6491.110698 13082.473330,6465.311299 12922.145152,6354.061934 12895.775428,6317.352395 12875.435298,6273.932646 12863.225794,6206.103486 12870.005663,6164.044133 12890.345248,6120.624395 12931.035028,6067.714927 12990.694225,6024.305391 13020.534302,5989.025901 13049.013992,5946.965987 13062.573715,5923.226295 13061.213899,5897.446441 13053.073660,5867.606797 13027.314203,5817.407189 13013.753926,5794.337775 12971.714544,5735.997918 12939.165032,5702.088569 12877.949411,5649.286378 12860.515918,5634.249199 12810.336423,5608.469192 12727.616893,5575.909885 12689.647345,5546.060041 12654.387814,5513.500180 12612.348430,5463.300568 12589.298425,5415.481287 12567.598618,5355.781612 12558.108763,5268.952457 12555.398756,5225.542906 12556.748972,5142.784018 12597.438199,5036.954740 12613.708378,4956.915500 12619.128428,4904.006024 12617.778259,4796.486937 12605.568349,4652.668555 12593.368530,4348.771403 12594.718751,4249.732590 12590.648938,4139.833460 12578.449068,4043.854314 12567.598955,4003.145011 12570.308850,3927.175750 12552.679444,3891.896249 12530.419336,3863.346351 12503.989739,3799.046978 12488.439995,3729.047566 12475.479792,3695.857911 12445.160558,3641.928489 12405.770716,3712.207467 12344.131095,3776.976797 12193.972634,3955.805388 12157.033195,4005.884654 12096.253682,4101.263711 12065.263567,4165.642910 12041.433831,4199.032721 11961.584675,4295.602148 11795.936199,4433.900650 11724.437087,4509.019970 11668.447398,4560.959325 11541.418799,4714.217861 11466.699349,4777.756892 11386.370316,4832.886430 11311.650722,4902.975993 11240.891540,4984.734885 11220.341601,5011.834777 11206.331860,5034.254566 11196.992030,5062.294558 11159.632297,5122.093452 11148.422605,5151.063207 11144.682450,5180.032823 11137.212484,5196.852939 11105.452856,5241.712336 11082.861620,5293.081781 11074.633319,5311.791718 11041.943501,5360.381494 11030.753337,5417.240625 11108.332803,5572.479066 11118.012483,5683.338255 11108.312772,5853.126600 11059.823177,5984.105082 10965.293997,6093.984369 10836.795036,6176.453451 10698.596260,6280.752446 10623.437405,6353.521733 10521.608270,6489.360086 10492.518160,6586.379120 10482.818472,6663.998541 10507.068045,6748.897534 10434.348846,6758.067325 10410.519116,6764.607517 10391.839469,6764.607512 10372.229494,6758.997639 10352.609894,6747.787525 10303.110170,6716.948034 10167.901609,6622.568905 10079.172311,6572.109094 9958.683545,6488.009888 9892.364275,6431.940782 9862.474527,6400.170966 9750.855609,6306.721606 9619.157107,6424.460417 9530.417586,6494.549976 9424.879036,6572.108926 9351.089208,6631.438399 9292.240012,6687.508039 9169.891104,6791.237118 9084.892293,6873.466126 8939.573200,7003.534779 8995.112845,7055.824382 8884.234066,7258.002399 8911.353491,7287.402223 8870.673913,7303.232121 8938.763096,7387.561206 8869.344144,7682.528191"/>
    <poly id="08087001" type="unknown" color="51,128,255" fill="1" layer="-1.00" shape="22625.106057,29169.853114 22606.416144,29502.809649 22564.296323,29574.938960 22510.017092,29650.308286 22463.487553,29688.208186 22353.608221,29727.707555 22367.348130,29794.696988 22377.647995,29868.546119 22323.538774,29958.135538 22207.869755,30173.423271 22065.581139,30427.260668 21789.063832,30559.979446 21627.205323,30705.397849 21555.775851,30797.837002 21524.985909,30822.557134 21356.497628,30818.906981 21328.957901,30825.386869 21322.478132,30898.326192 21288.458486,31016.654917 21280.348522,31066.894440 21303.038108,31165.773445 21340.298007,31264.642687 21303.038067,31351.341886 21291.698416,31412.941147 21272.248101,31484.250266 21252.808683,31575.019734 21164.679565,31631.518866 21128.599677,31670.358300 21113.479965,31704.688073 21095.660001,31738.728072 21063.260378,31794.637479 21032.480749,31916.196313 21016.271026,31953.475764 20964.431433,32029.654954 20934.451636,32061.664843 20861.552208,32150.813866 20799.982657,32209.163472 20586.124908,32283.722617 20505.125735,32301.552321 20450.066375,32343.721801 20431.446036,32363.771458 20417.126558,32403.891446 20414.976264,32419.651141 20416.416489,32431.821309 20428.586512,32444.720936 20445.055845,32455.460647 20464.385814,32472.660575 20466.536102,32489.850307 20463.665835,32504.170341 20432.876035,32525.660224 20407.816430,32547.870080 20402.096423,32569.359544 20385.626518,32587.269669 20340.517246,32625.949280 20329.777110,32645.469081 20313.307191,32722.118398 20301.857399,32815.957307 20305.437265,32979.995939 20316.177387,33024.945524 20313.307109,33085.114609 20323.337168,33130.604385 20348.396761,33166.424082 20391.356705,33245.933343 20402.806468,33281.753037 20424.296339,33368.071879 20444.335794,33433.981497 20475.845529,33577.240310 20508.884948,33763.018126 20621.984180,33801.687722 20700.033239,33833.917761 20859.622073,33913.916985 21020.000403,33911.046757 21298.877487,33898.877217 21328.947449,33907.477257 21351.866946,33927.527065 21379.066636,33971.946654 21404.846622,34026.386118 21423.466380,34072.225549 21467.365845,34200.274486 21493.005539,34282.513721 21518.195630,34409.302066 21534.795046,34468.361753 21554.845264,34515.641412 21586.344692,34539.990955 21655.084079,34572.940823 21710.933614,34580.110832 21758.182978,34574.370881 21797.672749,34561.910949 21864.152149,34537.130945 21997.401002,34495.071615 22071.870169,34480.741971 22110.849899,34478.461454 22138.309218,34481.331723 22179.298949,34504.111372 22505.755735,34765.838844 22919.711941,34515.501424 23632.285309,34213.344594 24353.007845,34560.751419 24376.327819,33896.357838 24399.148010,33591.690584 24415.767968,33577.210874 24429.707498,33540.741002 24425.957728,33521.961554 24431.317751,33486.561730 24417.377669,33453.312193 24414.157757,33432.922504 24422.207834,33418.982418 24471.527370,33395.912449 24494.046974,33355.153038 24509.586974,33337.453412 24524.066690,33324.583377 24532.966693,33301.103726 24545.856702,33253.824075 24549.436612,33220.874223 24548.726559,33172.874596 24552.306326,33143.685277 24559.466561,33116.465620 24571.636310,33092.115662 24573.786195,33004.716442 24522.947038,32928.427238 24511.487084,32881.147440 24533.686766,32828.857994 24554.446638,32805.218101 24584.526232,32784.448615 24621.756004,32770.838652 24645.385571,32759.378694 24670.445175,32742.188968 24701.945183,32703.499585 24718.234881,32693.109676 24735.414855,32647.990084 24741.865028,32620.050030 24733.984838,32559.160970 24723.965110,32526.211115 24724.515075,32499.191622 24721.094858,32472.991759 24710.845236,32443.371812 24711.075133,32422.702119 24746.874888,32320.263183 24846.913716,32201.144427 24852.843654,32183.984424 24848.623764,32169.244523 24849.263758,32154.614757 24853.183551,32128.805175 24860.584012,32103.745011 24868.553692,32047.925772 24867.413433,32030.266062 24876.463495,31979.826373 24875.753861,31958.336342 24862.863868,31930.407042 24842.104008,31893.157311 24831.363884,31858.057590 24810.484265,31821.787876 24804.214312,31781.338191 24798.424243,31761.888459 24786.254644,31747.558796 24778.374446,31727.498799 24776.324526,31702.168820 24769.064925,31685.239273 24748.994740,31670.269476 24685.225790,31666.849381 24660.745738,31650.909475 24649.495716,31612.169830 24614.416249,31566.330397 24584.346287,31559.160393 24567.156557,31550.570691 24542.816930,31546.990217 24529.957082,31551.160420 24512.747390,31550.570679 24501.287429,31539.820777 24491.977341,31501.141154 24482.667674,31481.800988 24464.057678,31459.591122 24432.548056,31441.681553 24421.277928,31427.001672 24423.428368,31395.481714 24420.558109,31371.842382 24411.968413,31353.932252 24394.788454,31330.292492 24369.008466,31285.882955 24346.098742,31237.893657 24329.089226,31186.673687 24255.349693,31041.975205 24231.720143,30971.056214 24225.269983,30944.906038 24231.000184,30908.376709 24240.309863,30876.856753 24242.459735,30851.786962 24226.710250,30761.708014 24204.510166,30710.128623 24154.390976,30658.558993 24120.021288,30618.439561 24108.571521,30597.669500 24109.281165,30576.180035 24113.581468,30557.559703 24131.481269,30532.120302 24147.951173,30517.800272 24163.700681,30499.890713 24183.030515,30487.710782 24210.240409,30479.830727 24223.840049,30465.501070 24236.010222,30443.300979 24238.160094,30417.511215 24231.720267,30393.871316 24221.690202,30373.101821 24200.930342,30339.791837 24183.030552,30315.432246 24178.020618,30296.092647 24180.880693,30279.612555 24191.620828,30266.002586 24226.710357,30260.992797 24241.030394,30250.253235 24282.549576,30182.193622 24319.069150,30130.624011 24350.569161,30078.334426 24381.359104,30041.975116 24357.029170,29724.457776 24331.629613,29396.231164 23786.024659,29472.670294 23297.819315,29573.129278 23299.539132,29530.189844 23284.089742,29497.559772 23252.469989,29472.880112 23198.250233,29455.200431 23167.780789,29452.770411 23092.231384,29453.990498 23074.561339,29459.470410 23059.331643,29455.810099 23045.311575,29449.110643 23047.141945,29430.210446 23053.841969,29409.490926 23056.891876,29389.371193 23053.841977,29371.081118 23046.531698,29352.801375 23034.342140,29339.391709 23002.052099,29325.981472 22960.322580,29295.482009 22926.393139,29274.161984 22904.322996,29271.542134 22881.523396,29272.292112 22829.173921,29279.392026 22783.554197,29269.672246 22736.895007,29223.742637 22645.805471,29200.462848 22635.155939,29190.553103 22625.106057,29169.853114"/>