<?xml version="1.0" encoding="UTF-8"?>

<!-- generated on 02/23/21 01:16:25 by Eclipse SUMO polyconvert Version v1_8_0+0719-6455967092
<configuration xmlns:xsi="http://www.w3.org/2001/XMLSchema-instance" xsi:noNamespaceSchemaLocation="http://sumo.dlr.de/xsd/polyconvertConfiguration.xsd">

    <input>
        <net-file value="../../data/simulations/20210223_VALLES_ORIENTAL/VALLES_ORIENTAL.net.xml"/>
        <shapefile-prefixes value="..\..\data\ATM\proc\shp\EMO96_IDESCAT_VALLES_ORIENTAL\EMO96_VALLES_ORIENTAL"/>
        <shapefile.id-column value="CZT"/>
    </input>

    <output>
        <output-file value="..\..\data\ATM\proc\shp\EMO96_IDESCAT_VALLES_ORIENTAL\EMO96_VALLES_ORIENTAL.poly.xml"/>
    </output>

    <projection>
        <proj.utm value="true"/>
    </projection>

    <processing>
        <offset.x value="0"/>
        <offset.y value="0"/>
    </processing>

</configuration>
-->

<additional xmlns:xsi="http://www.w3.org/2001/XMLSchema-instance" xsi:noNamespaceSchemaLocation="http://sumo.dlr.de/xsd/additional_file.xsd">
    <location netOffset="-425135.58,-4591941.46" convBoundary="-319.24,0.00,45311.36,41182.16" origBoundary="2.096981,41.476562,2.644593,41.848493" projParameter="+proj=utm +zone=31 +ellps=WGS84 +datum=WGS84 +units=m +no_defs"/>

    <poly id="08005001" type="unknown" color="51,128,255" fill="1" layer="-1.00" shape="11773.711354,20484.093372 11657.503744,20506.472093 11129.648673,20606.831142 11125.008905,20652.900460 11125.728869,20698.610358 11122.508809,20710.040168 11124.298825,20741.109541 11116.798565,20761.109655 11125.728846,20818.609210 11122.148940,20838.608759 11097.869045,20868.958863 11085.009337,20880.748516 10959.660086,20911.468213 10911.440894,20934.687669 10892.160749,20941.827935 10797.611626,20970.227334 10950.770239,21127.462069 11007.579676,21209.115534 11027.759423,21251.364868 11053.759110,21313.364325 11076.349335,21353.993793 11112.758755,21411.363260 11139.758282,21448.363139 11164.757998,21471.363050 11207.757874,21503.362761 11256.757328,21551.362255 11295.757012,21576.361982 11388.795819,21638.331299 11465.935498,21675.470907 11517.364970,21698.330537 11594.504086,21718.330526 11620.214009,21729.760341 11705.933185,21821.179587 11728.792798,21864.039186 11740.212830,21926.898474 11863.071571,22172.605870 11934.500440,22261.175376 12080.209203,22369.744446 12120.208723,22392.604074 12194.498241,22424.033872 12164.498334,22509.753198 12163.068287,22569.752270 12155.928571,22635.461716 12154.498525,22694.030895 12143.068704,22746.890828 12075.749134,22851.349532 12047.749612,22908.348950 12023.789775,22981.168511 11993.789876,23023.317896 11975.929994,23059.027592 11939.500451,23117.597188 11917.360796,23149.746941 11904.500948,23157.596846 11875.931224,23214.735984 11825.931759,23338.304963 11808.071876,23380.444157 11780.931907,23418.304143 11758.792254,23438.663674 11734.502170,23449.734060 11709.152793,23471.513718 11685.222695,23481.873474 11669.862760,23495.443381 11639.153364,23540.442644 11616.293313,23565.082373 11563.073946,23614.372165 11424.505552,23726.871303 11396.555723,23756.490676 11375.475764,23889.209510 11566.023978,23993.228578 11488.754747,24092.337458 11401.755406,24218.336301 11281.416635,24368.125090 11193.267413,24449.073986 11155.487819,24490.443800 11092.528295,24551.612852 11528.654308,24969.739272 11564.953743,24986.889091 11656.752910,25060.328139 11714.162427,25101.867842 11780.701692,25144.237511 11718.122146,25038.008155 11758.752046,24985.328998 11815.751483,24926.329347 11905.710537,24889.049909 12006.519285,24875.939804 12010.179601,24838.310273 12002.699312,24798.371052 12012.679702,24753.431240 12070.089089,24728.471450 12085.068515,24693.521646 12134.998319,24641.102536 12197.397843,24523.783559 12242.337087,24553.733204 12369.646250,24436.414099 12393.185814,24271.215815 12339.106352,24198.876551 12319.746805,24138.337283 12287.977014,24023.518233 12344.676339,23994.588544 12352.166269,23952.149241 12389.616191,23797.380368 12561.244156,23628.952428 12591.934186,23438.974127 12638.703402,23307.455298 12657.503384,23256.495946 12663.243347,23248.496127 12670.743605,23241.006065 12726.913071,23212.666114 12735.782918,23205.556140 12773.862495,23061.987609 12798.832069,23036.018210 12839.653359,22970.880105 12892.721122,22886.199123 12994.590304,22818.279947 13076.489520,22755.360938 13120.439273,22728.391141 13288.237463,22661.471813 13352.156897,22630.512018 13426.066052,22616.532024 13454.035700,22590.562625 13497.985451,22566.592477 13535.935061,22506.663059 13577.884880,22362.834343 13613.844303,22300.915303 13563.008417,22127.709825 13559.905148,22117.137158 13623.834365,21995.287991 13691.743954,21893.409212 13751.673540,21801.519872 13879.522335,21637.721492 14025.340569,21495.893174 14191.138968,21302.125062 14202.799663,21297.074782 14504.755944,21166.296498 14530.725780,21127.366887 14540.275542,21098.840069 14695.714206,20753.200520 14757.053883,20575.192086 14751.653894,20078.616784 14759.463928,19821.329550 14720.884210,19233.654938 14716.044321,19034.667067 14691.714955,18643.440889 14553.796209,18603.501222 14762.483978,18142.345745 14724.354836,17600.650847 13899.672446,18033.616305 13433.147129,18059.226204 13188.499609,18047.846037 13049.110477,18039.306425 12871.112364,18024.396621 12754.683650,17985.236667 12719.124004,17982.386923 12483.015901,18120.415619 12162.989258,18197.254711 12177.219050,18567.241275 12224.648717,18787.208720 12238.928240,18924.347618 12260.928124,19172.715324 12260.498057,19219.644758 12256.658103,19256.954364 12233.728403,19289.863867 11957.401033,19652.420336 11913.941356,19706.490032 11976.080561,20295.764133 11850.361670,20469.332536 11773.711354,20484.093372"/>
    <poly id="08014001" type="unknown" color="51,128,255" fill="1" layer="-1.00" shape="12663.682176,31759.563516 12665.311797,31837.522973 12672.832003,31890.902577 12693.261601,31949.102007 12697.501446,31995.931645 12694.221502,32029.851322 12682.081623,32055.091126 12621.992356,32146.399932 12616.752098,32161.659922 12589.572350,32203.679356 12566.252936,32234.509066 12539.852901,32264.968738 12436.994210,32353.538215 12399.144402,32395.677407 12351.994828,32448.537335 12341.995051,32462.106677 12320.575082,32509.246609 12308.425010,32534.956390 12288.425454,32563.536009 12252.715747,32594.955596 12225.575919,32635.675088 12219.855914,32653.525336 12214.146240,32682.815021 12213.425836,32721.384652 12213.425833,32735.664200 12219.855891,32774.233690 12244.855603,32828.523668 12270.575713,32871.373076 12275.575315,32885.662818 12276.285514,32920.662313 12274.145263,32977.091819 12270.215275,33019.941788 12270.565344,33064.940917 12276.995539,33123.870651 12284.495226,33144.580266 12284.495219,33178.150292 12281.995131,33195.289770 12278.065149,33205.649955 12263.785598,33219.579848 12250.215683,33243.149530 12245.565728,33257.789064 12246.995616,33292.788985 12226.285984,33391.357827 12214.495753,33436.357520 12212.716059,33471.357016 12207.715881,33506.706729 12199.495789,33535.636427 12197.356106,33579.926059 12190.926035,33614.565567 12173.066007,33667.425501 12168.066396,33703.495045 12159.136239,33738.134553 12151.636545,33758.494654 12149.496301,33776.344337 12143.426640,33813.483931 12155.206669,33820.273984 12166.276492,33831.343810 12184.135941,33843.133469 12207.706050,33853.483467 12252.705318,33875.273472 12322.274668,33930.612981 12417.373729,34039.092013 12427.033475,34056.171614 12466.413529,34095.551256 12515.452906,34136.411048 12535.512474,34158.700754 12547.402491,34188.410308 12547.402488,34204.750116 12543.682863,34220.360325 12521.392587,34254.529852 12519.172645,34270.139495 12522.142704,34295.399261 12531.052891,34313.228986 12551.112316,34343.688667 12565.232183,34358.548754 12582.322114,34370.438920 12620.961817,34379.358319 12636.561833,34386.788364 12669.991429,34411.308345 12691.541336,34436.568114 12712.341112,34498.237455 12727.950894,34518.297454 12776.240151,34539.837041 12811.900163,34550.977085 12847.569800,34571.036522 12888.429011,34609.666606 12904.029023,34640.876269 12918.889096,34708.485169 12941.928917,34744.145187 12970.898674,34773.864937 13002.848119,34814.724159 13075.667103,34926.913607 13089.777202,34941.033338 13122.467008,34961.833272 13130.646607,34974.463085 13140.306487,35029.442173 13167.796518,35079.972043 13192.306153,35113.401647 13235.405971,35152.041499 13276.265186,35168.381314 13308.965325,35192.890961 13353.534529,35246.390332 13393.664142,35282.790143 13424.864033,35302.849579 13460.523477,35322.169790 13491.733134,35350.229187 13571.232756,35394.229061 13653.701727,35473.727995 13704.221398,35498.257747 13720.570831,35508.647663 13740.630823,35531.677726 13749.550778,35553.227498 13751.780622,35570.317431 13751.031061,35586.667007 13743.600874,35604.486961 13735.431035,35634.206704 13733.950883,35655.016259 13737.660733,35678.046319 13754.010871,35705.535794 13786.700108,35736.735834 13803.790036,35770.175204 13811.729970,35804.224977 13820.500003,35880.134370 13836.470193,35915.054029 13869.909551,35970.783670 13887.739268,36009.043005 13894.429516,36030.222739 13933.429198,36079.262555 13958.688390,36123.841964 13966.868552,36155.041434 13967.758385,36213.730940 13974.728778,36246.610723 13990.668106,36294.220216 14005.218048,36212.541138 14073.727596,35966.223362 14012.008207,35615.676735 14251.065874,35384.579060 14381.754768,35324.019715 15067.068442,34900.083875 15820.860861,34694.296310 15822.290901,34670.726059 15828.010905,34657.876547 15855.860936,34627.156830 15860.860542,34617.157055 15862.290581,34600.727216 15855.150744,34555.017314 15844.440908,34535.727826 15795.511525,34477.158212 15788.371257,34463.938378 15766.231612,34438.588577 15744.802029,34418.589023 15714.442295,34396.448802 15703.732317,34383.948940 15693.372134,34366.799126 15687.302486,34329.659530 15691.582266,34293.229999 15691.582270,34272.880231 15688.732535,34255.730560 15675.512708,34218.590963 15653.012652,34190.730742 15621.233076,34168.590946 15611.942940,34165.021375 15602.653369,34163.241119 15582.653252,34166.451406 15563.373532,34164.660956 15538.373811,34166.451398 15517.654005,34164.311154 15509.084124,34160.741018 15476.584293,34134.661616 15471.944534,34124.661274 15470.514500,34114.311846 15469.444458,34075.021819 15466.584529,34067.522128 15454.804501,34054.672047 15425.154830,34041.102132 15372.305793,34030.382517 15300.156371,34002.882699 15277.656312,33992.172715 15262.656368,33978.953021 15228.376710,33936.103186 15186.937391,33875.373940 15174.077688,33860.384184 15164.797747,33842.524307 15127.658158,33798.234669 15065.868501,33752.525324 15026.228826,33719.315136 15004.438834,33689.665601 14970.159316,33649.676121 14941.939683,33625.026189 14903.729903,33581.456381 14892.660080,33571.816591 14863.730388,33522.887194 14851.580748,33507.177183 14781.941195,33395.748619 14752.301864,33342.898869 14726.581759,33267.899844 14708.012250,33235.040020 14706.582216,33225.749883 14708.372098,33215.760301 14717.301827,33199.680115 14741.231504,33168.610745 14743.371605,33160.040865 14742.661543,33148.970615 14728.731653,33113.971117 14686.942112,33072.541408 14657.302776,33053.261825 14639.082917,33032.191656 14635.162566,33017.192276 14641.942858,32970.762405 14636.582849,32936.482881 14626.583076,32920.403117 14600.163092,32889.693158 14592.303418,32875.403415 14578.013118,32835.413939 14581.943246,32795.764068 14589.803353,32765.764178 14584.083356,32738.264513 14573.733365,32722.194940 14563.013194,32712.194739 14550.873887,32707.554977 14524.443563,32710.055058 14516.233809,32713.274972 14516.584027,32717.554746 14509.083769,32727.554520 14490.164032,32743.264667 14465.874514,32751.844594 14448.014496,32754.344676 14429.444982,32752.554792 14418.014748,32740.414775 14414.805027,32721.484849 14422.664711,32681.125340 14420.514846,32670.775346 14408.014990,32644.345587 14371.235247,32598.985899 14358.735387,32592.206038 14321.586024,32589.346102 14256.946755,32634.345785 14221.946690,32645.415604 14204.446659,32645.415601 14170.517354,32641.125629 14153.737155,32632.555887 14120.167700,32595.416286 14069.808421,32550.776427 14052.308393,32531.136718 14033.018486,32500.776979 13975.879353,32428.997299 13961.949458,32417.917704 13953.739142,32401.847708 13930.169461,32373.277990 13889.089983,32339.708381 13835.880397,32308.278586 13823.740524,32297.568746 13810.520837,32273.279086 13809.090803,32265.778972 13810.880826,32258.999113 13833.020481,32231.499312 13848.740259,32222.929575 13878.380170,32195.429775 13881.950306,32188.999569 13883.380345,32173.639779 13878.740164,32154.000215 13874.450058,32146.500383 13842.730502,32127.260719 13809.090830,32112.570500 13791.590799,32110.790809 13773.741116,32105.790635 13723.741818,32086.151063 13689.091979,32060.071094 13614.092960,32036.861241 13557.673081,32024.001526 13500.523744,32017.221657 13408.384533,32024.361343 13355.885144,32035.791145 13335.885592,32042.571000 13321.595708,32049.721034 13307.675578,32060.430870 13296.595559,32070.070798 13267.316057,32104.000664 13255.176181,32114.720267 13243.386524,32119.720436 13219.096441,32123.640219 13081.957959,32126.140279 13047.317883,32122.570138 13009.458458,32112.570356 12956.599090,32089.360648 12937.679357,32084.360474 12920.179327,32075.070759 12892.679524,32053.650936 12870.179893,32028.291367 12860.889759,32012.221370 12844.490085,31939.222161 12832.700435,31902.432217 12819.850359,31885.292594 12794.130812,31859.222820 12746.271049,31830.653097 12718.061183,31804.583322 12663.682176,31759.563516"/>
    <poly id="08023001" type="unknown" color="51,128,255" fill="1" layer="-1.00" shape="10673.985302,20973.693540 10534.754289,20977.597446 10532.294322,20677.760348 10242.427259,20686.360184 10037.919023,20459.222287 9719.672101,20349.333282 8902.540290,20357.902863 8890.570427,20369.082818 8804.771225,20516.921343 8742.541720,20600.760466 8660.092683,20677.159917 8646.712741,20702.899991 8634.362785,20738.919279 8633.332649,20773.919339 8635.812767,20811.278492 8672.772141,20887.838212 8668.812388,21121.475923 8583.013215,21120.155863 8532.983621,21124.375747 8530.923932,21099.676133 8511.883884,21048.216502 8384.245090,20852.138224 8191.776902,20764.649077 8161.927066,20754.358957 8121.347860,20724.409313 8014.638919,20669.219709 8026.678430,20657.180204 8080.837746,20645.130373 8149.047280,20651.149928 8173.127007,20637.100278 8105.858012,20546.151012 8070.808427,20430.372046 8035.278520,20369.062691 8024.558925,20310.493511 8006.698914,20279.783554 7985.989310,20232.644182 7940.989487,20168.354994 7960.279432,19995.506403 7810.011034,19891.457190 7785.930892,19855.337529 7759.851364,19807.158259 7749.821443,19777.058568 7745.811498,19696.769040 7769.881346,19532.190790 7781.921002,19502.080911 7787.940975,19467.961495 7788.141287,19442.661810 7780.991251,19432.651842 7746.711590,19418.371721 7705.441711,19409.452322 7656.712627,19405.511999 7486.713902,19419.801705 7422.424726,19394.092334 7369.565360,19366.942313 7346.715508,19358.372570 7313.605836,19352.152290 7223.606731,19341.082448 7166.827011,19321.792951 7120.037279,19397.162279 6962.189136,19662.869168 6824.330352,19919.287057 6787.190751,19951.786459 6719.691393,20091.065440 6611.812412,20280.783113 6514.293226,20304.252977 6416.034250,20322.582952 6181.746332,20393.422050 6105.417075,20393.422034 5984.898557,20373.322520 5936.688573,20369.302357 5812.160098,20331.122841 5607.971888,20310.202688 5590.261926,20303.323026 5546.982473,20259.053347 5534.192843,20244.293626 5439.743544,20150.834502 5253.805480,20178.374189 5251.345312,20193.623986 5260.205386,20213.783782 5264.135360,20238.873535 5273.484947,20259.043524 5267.574969,20278.712955 5254.795525,20294.453112 5241.505193,20305.282849 5221.835896,20333.312507 5211.995797,20350.532530 5199.695670,20384.951911 5201.175811,20420.861634 5209.535752,20455.291210 5207.565520,20476.441215 5211.015891,20496.111072 5203.146018,20517.750588 5189.366174,20523.660560 5181.985816,20539.400860 5175.106012,20559.070574 5175.596084,20595.959890 5182.975865,20633.839842 5188.385706,20648.099431 5190.845727,20666.799463 5204.605602,20701.218848 5206.575826,20719.908688 5212.475463,20736.628443 5222.805494,20750.898791 5232.645582,20788.767985 5252.815138,20820.248027 5276.425158,20866.967534 5276.425154,20889.107323 5257.735308,20916.156965 5252.325035,20934.356865 5251.825326,20953.046704 5270.025221,20986.006469 5292.654943,21018.955901 5286.754732,21036.175783 5289.804632,21053.635894 5311.234636,21082.565598 5334.804311,21132.924886 5342.494532,21172.180090 5345.384185,21190.074365 5355.434207,21223.294173 5384.353706,21265.793787 5265.135125,21271.913670 5260.565001,21330.102901 5263.294973,21360.972676 5281.214857,21420.701940 5329.004391,21513.791443 5346.424005,21570.280830 5366.583793,21606.620190 5403.173559,21660.139518 5405.413454,21674.319833 5401.433778,21720.359424 5381.023535,21857.757937 5371.063673,21893.847438 5356.884060,21920.727068 5334.724302,21953.326838 5311.834521,21992.406360 5281.464581,22048.906072 5281.964708,22062.595882 5299.634737,22135.525443 5309.844440,22161.404675 5321.534292,22179.574992 5349.663748,22214.164253 5352.893997,22222.634193 5375.043819,22316.963753 5372.313978,22339.113169 5539.132124,22410.322385 5694.810927,22543.351554 5739.810035,22647.350635 5808.809586,22788.348887 5863.809036,22891.347993 5935.978394,23020.436832 5971.697722,23014.727030 6006.697640,23024.006981 6056.337091,23045.086357 6132.046306,23095.435889 6195.975636,23132.936048 6250.265040,23150.075537 6268.834979,23150.435527 6307.044767,23138.655506 6347.044293,23133.295923 6360.974189,23135.075614 6370.624311,23139.365723 6444.903497,23156.505782 6464.543060,23159.365716 6514.902484,23178.645445 6546.692252,23199.725384 6562.052039,23215.085177 6591.331954,23236.864986 6624.901409,23258.654423 6674.551193,23286.504456 6735.980294,23331.143752 6801.689738,23366.143684 6845.619516,23414.362878 6908.788951,23464.322835 6937.398724,23476.142790 6959.898215,23489.002640 6967.758455,23501.862347 7006.328078,23538.642103 7024.897588,23561.141741 7082.397134,23609.711157 7103.826715,23634.350895 7116.326571,23659.000823 7136.326681,23690.420419 7167.046255,23722.570182 7217.395906,23768.640077 7255.255324,23809.709233 7264.895251,23824.709180 7278.475350,23839.708987 7298.825113,23872.208966 7333.824600,23914.698390 7346.684303,23925.418564 7360.964416,23932.928448 7312.794892,24056.346949 7222.405600,24283.634846 7144.906441,24545.422534 7127.046559,24577.921940 7103.836709,24627.211736 7095.626947,24669.710777 7093.476507,24707.920561 7109.546492,24759.710309 7157.056015,24887.919067 7149.916308,24901.488975 7073.486678,24937.208286 7021.337363,24972.918399 7003.487672,25010.057989 6994.267737,25069.427403 6999.917514,25125.056672 7007.057350,25167.196438 7024.917211,25240.055361 7022.057134,25270.765314 7033.797231,25333.324496 7044.917293,25415.763892 7077.766765,25493.613221 7080.626822,25565.042247 7092.056602,25720.751228 7107.766606,25747.890484 7125.626049,25787.890152 7142.766080,25855.749471 7159.195904,25937.888762 7160.625915,26058.597822 7189.915586,26137.166981 7205.625154,26220.016052 7212.055359,26227.876154 7237.054927,26282.875769 7246.334866,26313.595493 7272.764611,26369.304605 7292.054513,26416.444544 7295.624645,26430.734285 7272.314564,26514.963131 7569.031955,26672.031991 7581.421826,26660.492049 7610.041236,26616.292597 7625.841422,26599.202668 7631.811280,26579.672673 7642.791089,26498.313664 7642.791098,26455.314208 7648.071287,26388.424578 7671.480743,26303.855281 7658.790935,26175.316837 7670.791104,26104.317589 7693.600480,26065.767924 7720.700396,25987.628693 7728.730513,25968.198498 7737.420157,25954.598863 7747.410166,25944.198759 7761.889882,25934.618853 7772.959849,25930.469175 7790.849878,25927.889113 7815.359660,25928.019211 7876.788795,25809.320311 7891.788750,25763.320642 7908.788525,25682.321479 7922.378435,25480.693238 8043.917465,25472.543389 8089.787044,25475.323488 8187.486005,25488.043492 8237.785401,25545.322931 8306.574896,25598.152162 8366.124515,25622.632228 8430.563747,25644.652130 8509.693045,25694.411359 8675.781171,25757.320789 8721.780841,25777.320772 8762.780480,25801.320665 8857.989544,25836.350330 8887.779362,25833.320251 8907.778914,25821.320242 8931.778804,25797.320363 8938.778792,25780.320605 8985.238264,25712.361500 9006.448152,25700.941461 9030.917873,25700.941466 9064.777666,25733.321122 9117.387147,25927.709166 9128.806761,25950.549254 9148.387008,25968.498882 9166.326722,25976.648758 9198.956226,25979.918934 9215.266310,25961.968889 9269.775435,25876.319781 9294.775596,25796.320597 9318.045331,25718.891570 9329.464811,25705.841328 9365.364914,25681.371473 9450.193702,25656.901769 9477.923404,25642.212127 9487.713815,25625.902474 9489.343454,25606.322366 9484.453422,25578.592667 9463.243971,25529.643313 9440.403891,25492.123910 9421.773936,25467.323785 9373.514842,25399.134202 9365.364970,25390.974560 9352.304963,25363.245001 9349.045133,25332.245133 9352.304975,25302.885375 9368.624828,25278.415517 9406.144372,25265.355654 9464.873799,25260.466053 9556.233154,25261.276075 9690.261706,25276.565818 9729.831171,25284.655819 9758.771203,25294.325341 9902.099647,25371.404747 9933.089182,25369.774977 9959.198875,25359.985140 10076.657736,25319.195594 10123.967545,25314.305566 10171.766865,25321.325519 10269.765786,25360.325225 10315.765596,25386.324790 10382.765212,25434.324429 10420.764495,25455.324388 10482.763941,25501.323505 10551.763514,25542.323161 10619.402697,25591.372748 10673.372033,25623.762601 10754.321511,25641.752585 10873.050148,25674.132257 11365.965703,25837.830389 11423.534901,25866.620380 11657.402608,25386.294890 11780.701692,25144.237511 11714.162427,25101.867842 11656.752910,25060.328139 11564.953743,24986.889091 11528.654308,24969.739272 11092.528295,24551.612852 11155.487819,24490.443800 11193.267413,24449.073986 11281.416635,24368.125090 11401.755406,24218.336301 11488.754747,24092.337458 11566.023978,23993.228578 11375.475764,23889.209510 11396.555723,23756.490676 11424.505552,23726.871303 11563.073946,23614.372165 11616.293313,23565.082373 11639.153364,23540.442644 11669.862760,23495.443381 11685.222695,23481.873474 11709.152793,23471.513718 11734.502170,23449.734060 11758.792254,23438.663674 11780.931907,23418.304143 11808.071876,23380.444157 11825.931759,23338.304963 11875.931224,23214.735984 11904.500948,23157.596846 11917.360796,23149.746941 11939.500451,23117.597188 11975.929994,23059.027592 11993.789876,23023.317896 12023.789775,22981.168511 12047.749612,22908.348950 12075.749134,22851.349532 12143.068704,22746.890828 12154.498525,22694.030895 12155.928571,22635.461716 12163.068287,22569.752270 12164.498334,22509.753198 12194.498241,22424.033872 12120.208723,22392.604074 12080.209203,22369.744446 11934.500440,22261.175376 11863.071571,22172.605870 11740.212830,21926.898474 11728.792798,21864.039186 11705.933185,21821.179587 11620.214009,21729.760341 11594.504086,21718.330526 11517.364970,21698.330537 11465.935498,21675.470907 11388.795819,21638.331299 11295.757012,21576.361982 11256.757328,21551.362255 11207.757874,21503.362761 11164.757998,21471.363050 11139.758282,21448.363139 11112.758755,21411.363260 11076.349335,21353.993793 11053.759110,21313.364325 11027.759423,21251.364868 11007.579676,21209.115534 10950.770239,21127.462069 10797.611626,20970.227334 10673.985302,20973.693540"/>