<?xml version="1.0" encoding="UTF-8"?>

<!-- generated on 02/23/21 17:20:10 by Eclipse SUMO polyconvert Version v1_8_0+0719-6455967092
<configuration xmlns:xsi="http://www.w3.org/2001/XMLSchema-instance" xsi:noNamespaceSchemaLocation="http://sumo.dlr.de/xsd/polyconvertConfiguration.xsd">

    <input>
        <net-file value="../../data/simulations/20210223_BAIX_LLOBREGAT/BAIX_LLOBREGAT.net.xml"/>
        <shapefile-prefixes value="..\..\data\ATM\proc\shp\EMO96_IDESCAT_BAIX_LLOBREGAT\EMO96_BAIX_LLOBREGAT"/>
        <shapefile.id-column value="CZT"/>
    </input>

    <output>
        <output-file value="..\..\data\ATM\proc\shp\EMO96_IDESCAT_BAIX_LLOBREGAT\EMO96_BAIX_LLOBREGAT.poly.xml"/>
    </output>

    <projection>
        <proj.utm value="true"/>
    </projection>

    <processing>
        <offset.x value="0"/>
        <offset.y value="0"/>
    </processing>

</configuration>
-->

<additional xmlns:xsi="http://www.w3.org/2001/XMLSchema-instance" xsi:noNamespaceSchemaLocation="http://sumo.dlr.de/xsd/additional_file.xsd">
    <location netOffset="-398221.65,-4568318.36" convBoundary="0.00,0.00,30528.13,39969.21" origBoundary="1.779098,41.261257,2.148670,41.620260" projParameter="+proj=utm +zone=31 +ellps=WGS84 +datum=WGS84 +units=m +no_defs"/>

    <poly id="08001001" type="unknown" color="51,128,255" fill="1" layer="-1.00" shape="6214.480004,27535.595395 6320.478802,27837.002829 6274.649108,27965.941013 6223.099855,28034.710680 6160.090220,28083.420349 6148.790355,28108.489712 6148.630106,28120.669504 6168.680305,28220.958581 6183.160142,28281.128234 6195.329737,28302.618267 6210.359830,28319.088030 6227.549557,28331.987800 6237.319436,28343.487685 6255.529534,28324.477785 6280.529258,28309.777954 6300.578921,28304.048191 6317.968957,28309.658205 6366.898197,28338.137899 6395.357911,28362.167375 6415.817803,28393.306966 6422.937535,28433.356743 6421.157840,28458.276480 6422.937519,28488.536414 6428.277711,28507.225829 6439.837468,28523.235947 6454.957168,28539.255691 6472.746969,28545.485737 6526.126571,28541.035965 6538.576746,28531.246128 6564.376150,28478.746188 6573.265965,28445.816725 6584.836080,28379.077579 6593.725894,28347.927803 6607.065921,28309.658287 6624.865927,28268.718673 6636.425694,28250.038464 6654.215499,28242.918726 6674.675398,28250.038474 6689.795097,28268.718691 6705.805203,28300.758317 6723.594848,28356.827412 6739.614721,28389.757307 6765.404336,28418.226802 6792.094129,28442.256844 6816.113970,28450.266438 6831.013548,28452.936540 6849.593821,28450.986844 6898.613245,28439.586776 6936.862808,28438.696942 6967.622447,28442.096648 6989.822114,28451.406749 7003.422172,28465.016582 7013.452093,28482.206315 7009.151930,28502.266308 6999.132192,28515.876134 6979.792025,28525.186224 6962.612627,28527.336086 6943.282653,28534.495885 6938.982491,28550.255578 6940.412521,28568.165707 6996.982293,28629.055202 7022.751950,28649.824842 7065.001276,28664.874910 7136.600735,28675.614495 7201.039963,28689.224342 7225.919777,28703.194164 7239.519977,28713.944066 7253.839439,28736.144163 7255.989728,28742.594330 7246.679625,28769.813984 7235.229851,28783.423809 7218.760090,28790.583609 7200.139756,28794.173698 7185.820285,28804.913259 7180.090088,28817.093051 7175.080144,28837.863248 7181.530305,28855.772812 7203.720195,28897.322700 7213.029721,28909.322290 7242.389611,28940.842255 7273.889036,28962.331727 7301.809123,28993.841499 7326.868715,29017.481403 7377.708304,29043.271038 7457.897456,29073.360981 7511.956957,29108.100444 7529.856889,29124.580541 7556.346368,29176.149740 7554.916458,29234.179149 7571.386208,29264.258881 7584.266012,29272.858917 7610.765844,29253.519327 7665.895411,29233.459349 7706.705079,29236.319431 7726.754737,29245.639300 7738.204505,29254.229001 7751.929983,29272.029000 7776.874486,29304.378927 7788.324112,29312.968629 7803.363975,29317.988763 7818.403840,29317.988767 7890.003308,29293.629060 7916.843167,29275.718939 7947.632542,29249.219122 7965.532343,29227.009407 7982.002250,29201.939480 7989.162488,29172.569958 7999.182228,29152.510533 8010.642199,29122.430808 8022.811805,29103.090648 8042.141643,29075.870996 8060.041583,29062.971236 8080.811644,29053.661146 8119.470879,29055.091192 8145.960938,29059.391499 8184.630362,29071.571302 8229.379773,29090.910912 8323.169130,29111.680571 8457.777785,29123.860401 8503.597108,29126.010846 8548.707073,29138.190651 8601.696386,29163.260456 8647.336203,29195.490064 8675.388365,29227.625529 8696.735555,29252.079400 8714.635345,29268.559497 8735.404975,29283.599367 8752.224950,29292.199262 8767.264814,29296.498999 8807.354510,29294.349144 8856.043819,29278.589462 8893.273448,29262.829211 8946.973119,29250.649433 8967.742613,29242.769803 8993.512417,29242.059747 9020.722450,29237.759455 9047.211946,29230.590032 9127.231238,29218.419887 9202.410467,29194.060180 9234.630296,29191.200259 9312.669588,29198.359943 9360.279071,29211.969926 9421.858225,29235.609698 9485.578046,29254.229482 9570.066935,29272.139633 9618.151917,29285.739140 9635.936198,29290.769609 9700.375848,29315.838851 9748.705018,29340.008618 9783.074841,29387.288279 9786.654591,29427.228063 9802.404642,29494.557521 9813.864601,29507.457148 9839.634261,29518.197286 9863.984363,29517.487229 9925.553195,29502.437614 9949.183328,29488.117587 9969.943195,29483.817435 10040.832451,29488.117612 10077.701802,29502.977281 10102.041988,29530.917342 10122.811612,29565.296809 10142.141436,29588.936710 10173.640862,29608.276316 10197.270985,29634.065944 10271.020299,29687.075950 10318.279560,29713.575223 10429.788360,29756.385158 10506.155546,29775.479029 10509.977656,29776.434982 10563.317193,29783.964838 10579.787092,29791.844477 10599.836749,29806.164516 10632.056715,29821.924220 10718.695895,29838.404335 10839.694723,29843.414305 10873.344019,29852.724410 10956.403443,29851.294397 10959.138090,29862.011454 10973.403184,29917.913650 10973.403171,29964.472904 10991.843111,30136.751578 10991.523166,30211.660560 11041.015113,30215.199565 11051.662664,30215.960876 11101.781868,30195.181064 11126.131833,30179.421234 11137.581462,30179.421237 11144.741264,30188.021271 11149.041560,30201.631101 11139.011487,30218.110766 11138.301419,30236.730390 11141.881742,30252.490228 11168.371371,30273.260293 11204.890934,30269.680400 11262.170365,30255.360382 11293.669797,30255.360391 11302.260059,30264.670630 11330.359918,30330.209503 11325.349552,30343.819330 11326.069946,30355.289626 11335.369705,30366.749591 11336.809502,30388.239055 11330.359891,30429.778744 11335.369686,30436.228911 11345.399753,30440.528647 11384.779392,30419.038627 11401.249151,30417.608596 11418.428687,30429.778767 11421.288614,30442.678533 11421.288605,30474.908553 11432.748707,30484.228419 11447.788429,30487.088353 11465.688368,30475.628396 11482.868333,30471.328243 11520.817930,30474.198516 11543.007828,30487.088378 11559.477579,30516.458048 11601.726902,30548.697847 11640.386703,30551.557928 11679.766333,30563.737732 11704.825926,30587.377493 11724.875586,30591.677373 11752.795674,30618.897038 11769.985403,30627.486741 11934.503779,30626.056749 12013.262903,30627.496998 12060.522601,30610.297087 12109.211790,30512.878292 12314.629861,30531.548225 12383.359622,30543.287785 12484.738702,30564.097931 12675.196758,30544.037987 12683.786460,30531.858054 12708.846063,30518.248232 12748.946095,30510.728028 12757.535796,30500.698670 12767.555540,30464.888609 12778.295692,30388.949500 12802.645247,30314.460390 12812.665413,30290.820637 12837.014957,30261.450554 12856.344792,30243.540997 12922.934328,30196.981619 12969.623690,30148.982149 12996.833734,30104.562434 13021.183140,30057.292557 13031.203463,29975.623679 12982.513746,29926.913979 12976.783986,29895.404355 12993.973724,29868.174368 13019.743534,29845.254876 13097.072630,29819.465275 13144.332478,29770.755600 13198.741665,29683.366308 13233.111373,29632.146777 13246.001372,29632.146780 13260.321401,29650.776743 13304.710826,29665.096788 13353.400557,29657.936572 13383.469956,29645.047006 13414.979728,29619.257393 13443.619658,29604.927175 13482.278894,29604.927185 13496.238944,29594.897121 13516.288612,29569.107505 13526.308355,29539.027779 13537.768465,29513.238019 13586.458057,29496.048301 13605.068063,29473.128382 13625.117870,29455.928888 13652.327336,29455.928895 13703.876988,29483.148708 13741.106752,29490.318714 13776.906484,29484.588388 13795.526247,29501.778124 14095.883049,29347.410227 14268.791458,29051.563188 14274.521841,28865.314706 14303.081427,28614.447361 14288.841618,27673.696523 14128.943472,27658.756417 13527.229004,27583.896967 13424.640014,27568.036879 13394.570622,27555.147299 13371.660889,27555.147293 13334.420933,27546.547392 13278.571404,27529.357647 13255.661675,27515.027416 13228.452210,27515.027408 13195.522315,27526.497554 13179.772246,27523.627286 13149.692524,27499.277885 13122.492828,27489.247952 13048.023662,27516.467589 13036.713764,27477.417647 13023.833965,27450.917818 13000.764582,27340.249162 12994.474108,27290.459657 12992.174339,27257.270146 12983.014739,27190.890414 12971.564409,27165.821045 12962.254892,27117.471342 12952.234598,27090.961746 12940.775206,27075.921879 12922.814828,27061.231804 12895.665388,27043.682080 12826.936198,27017.182236 12794.716235,26991.392606 12781.106411,26974.202872 12722.396985,26832.363762 12714.517503,26787.954373 12715.957175,26747.124888 12742.446830,26671.905614 12749.607066,26646.125621 12753.186974,26624.636159 12751.756954,26565.896545 12748.886695,26549.416877 12728.837043,26513.504603 12687.367437,26460.257635 12681.787726,26444.647851 12684.017439,26418.997949 12678.447494,26407.848285 12673.987529,26356.558672 12663.958030,26343.178593 12626.068320,26316.408944 12609.348149,26291.879341 12593.748710,26250.629844 12567.278619,26218.849836 12557.249122,26198.780213 12533.839125,26170.900457 12526.039476,26154.180844 12491.489443,26118.491098 12484.799765,26095.081235 12487.029475,26079.471452 12485.909742,26062.741507 12476.999557,26048.251600 12463.620049,26034.871519 12390.060704,25999.181904 12374.460830,25994.721921 12357.741076,25998.071926 12293.101690,25957.932527 12267.461983,25944.552585 12239.601768,25943.432841 12212.852087,25949.012549 12183.872699,25957.932498 12163.812704,25955.702221 12148.212690,25949.012532 12131.493079,25947.892224 12115.883292,25960.162187 12103.623653,25982.462076 12081.333379,26009.222083 12073.533577,26031.521548 12059.043667,26049.361459 12013.354277,26117.381002 11998.664612,26188.019975 11993.294257,26212.149666 11992.174513,26237.519562 11989.511067,26243.186902 11981.164563,26260.949523 11928.674798,26293.049010 11900.975388,26317.848980 11882.015165,26339.728577 11868.895272,26347.018471 11848.475857,26347.018466 11804.736189,26339.728557 11781.406590,26339.728550 11739.126537,26355.778573 11696.837278,26390.788246 11680.797576,26396.617810 11658.927614,26342.648469 11651.637871,26291.589315 11642.887931,26276.998900 11622.477718,26272.629090 11587.478225,26271.169317 11553.938493,26276.998877 11524.778755,26294.509090 11498.539112,26304.718790 11441.669775,26335.348321 11413.969804,26339.728453 11393.550386,26354.318293 11332.310684,26358.688223 11314.810652,26367.448355 11301.690756,26386.408144 11303.150931,26433.087724 11285.651038,26450.597374 11263.781057,26465.177447 11243.371407,26475.396916 11164.632240,26487.066790 11112.143044,26511.856561 11054.983370,26533.263055 11032.613822,26561.036205 11003.973748,26584.676093 10967.454183,26597.565939 10923.064746,26629.805290 10870.075277,26654.155235 10840.005310,26675.645257 10823.185752,26696.414743 10807.435820,26708.594673 10790.246088,26714.324862 10778.649378,26715.435961 10775.215990,26715.764661 10758.746092,26709.314491 10742.996589,26706.444790 10690.006702,26710.024678 10672.827164,26706.444771 10669.605125,26704.967595 10655.637435,26698.564565 10634.157173,26694.274594 10559.107904,26691.564555 10541.098540,26698.194922 10515.028765,26723.804330 10479.489076,26736.604287 10459.109157,26735.184438 10438.259116,26738.974267 10409.349372,26760.784214 10380.889643,26789.014033 10364.900049,26809.933715 10353.090278,26864.562998 10339.480418,26977.991916 10246.810782,27017.911713 10173.402041,27037.911242 10116.842443,27046.501491 10091.062445,27053.671481 10047.383073,27075.160791 10019.462979,27070.861050 9970.773815,27075.870975 9950.013950,27073.010898 9922.803918,27074.440926 9846.904862,27087.330903 9801.805218,27122.430183 9761.705749,27142.490166 9736.286159,27160.220082 9688.316399,27174.549728 9658.966691,27178.850019 9624.596993,27191.019610 9606.697196,27199.619496 9558.727856,27232.569475 9510.038121,27254.058925 9484.978520,27261.939120 9438.438657,27266.948903 9298.790051,27266.608839 9250.820708,27308.158284 9232.210703,27326.788237 9192.831064,27352.568221 9174.931268,27354.718083 9123.371706,27336.818275 9104.761707,27334.668404 9094.732348,27330.368102 9076.942545,27330.308217 9060.242326,27332.758044 9042.662455,27339.438098 9026.412675,27355.468167 9009.052924,27381.077578 8997.003221,27393.407421 8963.323628,27397.234618 8933.993456,27400.567633 8850.224385,27433.517177 8811.564723,27439.247359 8745.695458,27429.937246 8647.646422,27433.947179 8607.507045,27411.307249 8561.677399,27371.197582 8543.067401,27367.617675 8528.027536,27368.327734 8454.278196,27412.747435 8408.998918,27429.937153 8335.969422,27427.066869 8261.500266,27414.897248 8119.741713,27415.607272 8029.882474,27406.297152 7895.273817,27406.297115 7873.083916,27403.427411 7839.424429,27390.537404 7790.744900,27365.467601 7742.765379,27354.717688 7684.415903,27351.137770 7642.886401,27360.447429 7595.636472,27375.497473 7577.736533,27385.527536 7562.696668,27387.667064 7465.567631,27380.937432 7398.018617,27380.507355 7321.349345,27355.147629 7023.742145,27190.718786 7013.372187,27209.979107 6926.013016,27260.348132 6884.553584,27276.638239 6860.863573,27281.088019 6786.834242,27275.158064 6652.095616,27334.417305 6660.555776,27377.647078 6626.186071,27412.026529 6604.706363,27453.576406 6571.056494,27469.336233 6445.747732,27499.055940 6396.348357,27525.565519 6329.978956,27535.935453 6274.849399,27523.335638 6256.209672,27525.175766 6214.480004,27535.595395"/>
    <poly id="08020001" type="unknown" color="51,128,255" fill="1" layer="-1.00" shape="5352.944299,6515.030163 5421.483528,6484.860424 5460.113036,6476.100724 5521.482829,6465.890469 5567.252178,6468.910799 5616.671925,6475.810430 5662.141163,6495.360538 5699.690839,6541.479974 5725.500539,6616.659337 5971.997785,7153.834244 6046.537101,7334.262370 6068.987033,7382.391949 6118.696688,7411.271547 6161.996092,7456.190983 6174.985886,7466.021172 6191.095795,7482.530995 6197.275578,7494.700597 6203.175779,7512.750444 6206.895961,7533.200577 6205.995780,7544.170034 6203.685664,7558.870011 6187.875850,7585.250072 6194.715585,7592.910008 6229.745228,7595.729603 6242.175432,7623.049628 6254.715206,7639.639289 6270.814924,7651.319380 6289.734656,7646.889135 6306.244906,7625.539397 6315.504324,7620.699617 6338.394094,7624.649562 6361.004280,7643.659472 6376.713847,7698.448581 6408.123805,7716.178511 6412.143388,7729.868746 6410.533710,7741.958505 6396.843892,7770.958269 6381.543969,7820.107775 6383.153625,7887.777109 6378.343986,7914.046614 6378.613789,7949.206351 6394.023822,7982.205891 6408.083664,7996.535695 6444.583258,8017.095828 6456.743227,8036.295708 6458.903282,8049.285505 6476.223097,8080.410230 6527.382597,8140.314607 6544.822175,8156.854158 6551.252376,8172.474134 6765.829884,8280.303293 7044.417110,8453.381841 7330.864440,8609.380087 7335.584592,8656.049474 7323.154233,8678.769227 7296.084586,8833.867916 7217.095520,9021.556028 7259.875250,9100.585535 7305.954740,9163.144721 7466.452787,9247.524083 7546.222213,9265.223733 7555.281891,9258.644043 7746.180329,9233.943920 7968.337955,9261.933721 8030.877740,9245.463981 8264.564994,9207.604485 8341.914575,9312.973581 8384.693880,9392.002664 8440.653389,9438.102145 8563.252106,9484.611885 8655.411104,9543.891712 8727.510822,9584.911188 8818.929606,9642.190635 8884.159291,9687.130037 8996.067971,9799.078836 9010.877934,9827.068580 9030.627617,9871.528083 9061.897286,9904.447929 9112.906738,9950.557601 9172.156384,9970.307312 9261.015077,9971.957497 9344.944373,9998.297099 9386.093917,10024.636689 9429.703624,10057.976830 9482.962859,10191.935165 9589.651783,10402.823398 9678.970815,10453.343088 9711.110799,10464.522912 9789.349825,10478.502514 9846.639588,10460.332783 9959.808344,10379.253817 10043.637291,10341.514179 10155.416628,10298.174307 10197.336128,10278.604971 10235.055837,10254.844760 10276.975482,10218.505419 10325.874584,10186.355679 10447.433568,10147.215743 10490.743178,10148.605870 10537.132981,10159.055675 10567.612611,10174.326005 10620.941945,10212.505506 10691.241425,10340.114046 10708.011267,10422.583163 10705.211192,10517.642731 10727.570959,10533.022486 10742.940514,10540.002088 10765.290662,10533.022496 10803.020171,10387.643578 10810.009836,10331.724545 10826.770090,10274.414976 10857.159558,10243.085427 11236.845790,10156.996170 11880.959674,9985.058134 11938.249441,9952.908396 12030.458153,9919.358501 12150.617253,9880.218989 12217.686520,9874.629099 12290.345829,9894.199173 12403.645644,9904.389941 12539.043344,9916.568778 12675.972289,9955.708217 12717.891782,9958.498652 12813.180823,9957.168441 12947.029586,9938.928657 13016.888714,9919.358761 13086.747983,9902.588916 13201.317034,9866.239259 13318.685848,9843.879519 13398.735148,9821.139823 13455.634766,9831.209683 13459.714389,9230.875600 13563.683796,8964.218443 13408.675414,8409.153821 13435.134760,8382.673963 13707.342669,8305.134879 13951.200299,8172.746378 14038.158986,8144.376290 14320.356324,8106.436962 14465.715312,8048.877572 14648.093566,7984.359120 14680.592976,7973.318467 14688.493183,7797.739914 14639.503412,7559.212179 14671.543036,7547.332360 14682.683075,7540.722518 14687.873223,7520.972825 14697.742907,7508.502697 14716.432746,7503.313125 14752.242241,7508.162826 14778.742073,7483.052982 14813.021737,7472.143414 14843.141813,7453.953290 14880.521068,7439.413708 14895.061230,7423.303799 14906.491046,7398.374158 14917.911091,7387.974056 14912.440976,7258.245255 14843.291923,7237.155681 14787.842311,7190.575889 14702.403167,7059.977183 14618.143764,6995.867770 14488.795348,6925.828836 14352.846280,6889.089118 14094.534225,6682.432916 13499.705078,6206.555518 12313.417240,4507.811557 12159.758579,3623.070381 11563.294646,3383.112466 11028.269729,3132.194878 10816.642184,3025.995783 10525.684854,2549.590590 10384.236516,2375.742142 10357.296862,2387.862047 10084.869407,2430.991375 10079.986450,2425.380374 9785.822474,2087.334587 9022.049755,2379.781316 8730.762425,2509.160382 8682.272882,2449.860608 8627.043538,2405.380995 8569.114357,2401.341292 8435.755539,2403.021143 8442.495564,2091.714356 8317.216419,2044.544807 8215.527646,1916.515829 7832.961400,1971.775229 7594.533454,2033.764556 7478.684845,2080.934038 7450.405331,2083.624088 7283.886608,2021.554808 7245.427124,1992.464857 7233.236942,2188.593194 7176.557575,2242.332192 7102.318307,2270.892254 7273.646365,3384.981153 7413.645242,3668.328395 7100.717933,3929.065887 7082.728392,3925.365655 7050.108660,3924.786101 7002.919183,3926.536048 6886.400302,3925.955903 6862.510130,3920.706016 6784.441115,3919.545771 6733.461806,3913.716189 6651.242544,3914.886014 6605.502919,3925.665627 6565.013457,3940.815471 6531.223733,3944.025751 6502.673836,3962.965432 6475.293927,3990.075088 6466.554170,4007.264673 6455.434085,4037.904548 6453.184410,4068.684144 6453.934529,4087.454387 6467.443980,4128.734033 6466.693850,4147.503709 6446.434243,4198.553226 6401.414580,4244.342522 6339.135401,4280.371982 6318.125684,4278.122310 6301.625638,4262.352419 6291.115971,4245.092473 6282.865612,4171.523357 6274.606177,4155.013677 6258.856257,4133.243640 6243.096425,4118.223732 6224.336516,4114.473812 6156.017412,4148.203492 6103.927557,4179.473154 6041.418055,4233.672361 5997.658848,4250.342413 5981.228869,4246.592493 5941.408997,4216.992643 5920.459161,4213.562788 5903.949480,4223.322897 5849.169982,4287.132307 5836.420269,4293.881867 5837.230271,4300.371953 5849.730120,4333.721852 5885.149888,4383.750881 5891.399880,4412.940765 5812.220316,4456.710136 5639.291874,4531.749581 5244.225625,5077.673821 5264.755576,5148.253485 5351.994349,5333.081570 5339.164677,5751.497767 5403.303897,5900.376207 5515.032897,6147.173593 5547.172295,6223.692820 5553.772359,6269.232702 5551.342484,6282.782224 5466.923207,6411.061005 5407.443645,6473.020513 5352.944299,6515.030163"/>
    <poly id="08056001" type="unknown" color="51,128,255" fill="1" layer="-1.00" shape="15600.621503,1648.809963 15358.606544,1843.499996 15234.264484,1947.526626 15010.733964,2127.058174 14966.523327,2127.907520 14936.940745,2177.876227 14929.286881,2239.941211 14834.158650,2257.455512 14640.790986,2304.227194 14349.361743,2716.737871 14358.727749,2736.099553 14417.406897,2801.328695 14479.346452,2846.998684 14593.445077,2889.398093 14658.654802,2931.797913 14691.254000,2961.147483 14714.074111,3010.076872 14743.413456,3107.915971 14815.133215,3195.985341 15007.481022,3385.153244 15295.468395,3481.172235 15400.317379,3491.152641 15527.455923,3494.412509 15612.215188,3500.932344 15787.030702,3648.919833 15877.167375,3725.223619 16120.789925,3931.458249 16131.680113,3915.538313 16164.949472,3879.878880 16195.839209,3856.109041 16233.849255,3834.709196 16251.668644,3829.359379 16285.528444,3808.559604 16320.578054,3783.599816 16334.238140,3765.179795 16343.147911,3740.820072 16347.307789,3716.450580 16354.437871,3695.050727 16388.297676,3655.241190 16414.427329,3628.491520 16425.126976,3620.171496 16460.176723,3611.261316 16474.426542,3611.261320 16488.686552,3617.201449 16494.626255,3612.451700 16518.386349,3555.402177 16570.655989,3504.292788 16587.295908,3478.142621 16600.365548,3463.883038 16655.014946,3417.523400 16696.594561,3392.563755 16713.224568,3378.303607 16742.923933,3342.644173 16753.613821,3302.234560 16765.493655,3274.895007 16784.503565,3252.314974 16813.013539,3246.375421 16845.093079,3243.995104 16943.702254,3263.015224 16952.991968,3247.225239 17122.726617,2862.251702 17159.602502,2778.612752 16838.867914,2441.477334 16623.949419,2216.698540 16450.033951,2030.407702 16295.067934,1873.062843 16118.726698,1694.014620 15963.158486,1538.396222 15861.199323,1439.186384 15830.176095,1464.143058 15600.621503,1648.809963"/>
    <poly id="08056002" type="unknown" color="51,128,255" fill="1" layer="-1.00" shape="13224.258942,573.899400 13145.509995,654.349566 13071.930670,718.459078 12985.961622,770.218641 12966.321489,789.988290 12944.561639,821.098139 12956.391754,915.747044 12977.681455,997.395963 12944.961908,1056.225737 12902.242153,1150.014511 12819.172916,1350.662687 12771.153305,1458.621439 12770.523632,1518.361025 12785.943286,1570.600360 12819.172846,1613.340198 12900.612236,1683.479485 12968.691231,1733.248901 13265.928368,1924.957403 13286.718378,1948.136951 13296.217873,1974.246639 13297.398048,2005.116268 13278.008322,2070.745863 13258.448593,2096.835583 13380.707303,2060.956049 13501.346127,2093.895878 13571.085488,2099.755616 13611.348730,2111.549952 13643.184644,2120.875485 13673.374356,2144.065227 13726.273756,2245.234381 13752.353698,2310.463657 13788.213285,2390.372670 13820.813042,2445.822300 13876.232366,2465.392369 13925.132024,2465.392382 14025.767632,2455.958307 14029.460640,2455.612194 14062.060404,2484.961764 14159.859711,2520.841497 14257.658448,2569.760997 14309.817783,2634.990705 14349.361743,2716.737871 14640.790986,2304.227194 14834.158650,2257.455512 14929.286881,2239.941211 14936.940745,2177.876227 14966.523327,2127.907520 15010.733964,2127.058174 15234.264484,1947.526626 15358.606544,1843.499996 15600.621503,1648.809963 15830.176095,1464.143058 15861.199323,1439.186384 15869.755332,1432.303190 15544.256694,1108.174979 15455.352303,1016.875497 15552.820857,768.790404 15569.269250,726.924002 15590.943463,666.850624 15605.798603,622.862101 15607.374030,585.577555 15656.310998,271.950901 15652.685655,272.304233 15588.395915,274.803735 15537.646498,271.093869 15471.087131,278.493741 15372.298172,278.444028 15341.768426,280.073655 15247.949484,283.413872 15168.790462,277.254025 15117.050834,282.163584 14994.412046,283.933472 14947.922441,284.683585 14870.663430,288.663798 14832.733797,284.733667 14792.823743,284.463844 14762.874108,292.003445 14676.024996,298.273382 14510.226654,293.723188 14452.167381,288.833703 14351.458446,298.483231 14161.570332,294.763561 13871.082713,286.453226 13823.563547,279.663730 13702.074792,276.053503 13623.835342,265.383566 13553.195803,265.383547 13502.996771,259.413681 13440.706986,258.133682 13403.017440,247.563555 13383.787977,246.853912 13274.299313,475.334264 13229.759244,568.280191 13224.258942,573.899400"/>
    <poly id="08056003" type="unknown" color="51,128,255" fill="1" layer="-1.00" shape="15552.820857,768.790404 15455.352303,1016.875497 15544.256694,1108.174979 15869.755332,1432.303190 15861.199323,1439.186384 15963.158486,1538.396222 16118.726698,1694.014620 16295.067934,1873.062843 16450.033951,2030.407702 16623.949419,2216.698540 16838.867914,2441.477334 17159.602502,2778.612752 18018.602664,830.317377 18258.769929,285.594791 18229.130453,282.644539 18196.350476,284.074567 18173.340946,282.194507 18161.251186,281.294468 18115.221370,267.954442 18069.911807,267.154619 18047.251930,263.474487 18009.162617,261.774629 17966.843077,260.074771 17928.423506,257.124658 17863.683890,253.094722 17766.344928,249.234791 17736.615420,248.344940 17687.905736,246.944620 17562.446940,243.144561 17338.469138,245.884675 17192.820395,248.454796 17112.201041,250.454730 17045.091858,250.134647 16896.883719,244.324577 16790.144487,244.404390 16671.245422,247.024770 16599.326467,245.654597 16562.826868,247.704654 16522.132432,250.610155 16403.868260,259.054441 16305.018996,262.394233 16242.609876,263.744272 16188.480156,261.214021 16081.661083,267.374386 15982.442209,263.834379 15943.602770,266.114329 15837.553642,264.923927 15782.064239,271.093931 15702.985056,267.403876 15656.310998,271.950901 15607.374030,585.577555 15605.798603,622.862101 15590.943463,666.850624 15569.269250,726.924002 15552.820857,768.790404"/>