<?xml version="1.0" encoding="UTF-8"?>

<!-- generated on 02/26/21 14:39:43 by Eclipse SUMO polyconvert Version v1_8_0+1434-b9032b2f7c
<configuration xmlns:xsi="http://www.w3.org/2001/XMLSchema-instance" xsi:noNamespaceSchemaLocation="http://sumo.dlr.de/xsd/polyconvertConfiguration.xsd">

    <input>
        <net-file value="../../data/simulations/20210226_1436_BARCELONES/BARCELONES.net.xml"/>
        <shapefile-prefixes value="..\..\data\ATM\proc\shp\EMO96_IDESCAT_BARCELONES\EMO96_BARCELONES"/>
        <shapefile.id-column value="CZT"/>
    </input>

    <output>
        <output-file value="..\..\data\ATM\proc\shp\EMO96_IDESCAT_BARCELONES\EMO96_BARCELONES.poly.xml"/>
    </output>

    <projection>
        <proj.utm value="true"/>
    </projection>

    <processing>
        <offset.x value="0"/>
        <offset.y value="0"/>
    </processing>

</configuration>
-->

<additional xmlns:xsi="http://www.w3.org/2001/XMLSchema-instance" xsi:noNamespaceSchemaLocation="http://sumo.dlr.de/xsd/additional_file.xsd">
    <location netOffset="-419209.90,-4573165.91" convBoundary="0.00,0.00,21461.22,22205.45" origBoundary="2.033147,41.306702,2.289488,41.507476" projParameter="+proj=utm +zone=31 +ellps=WGS84 +datum=WGS84 +units=m +no_defs"/>

    <poly id="08015001" type="unknown" color="51,128,255" fill="1" layer="-1.00" shape="17761.543039,16983.150507 17695.202251,16912.563756 17658.646879,16893.339948 17662.061292,16923.532216 17641.609163,17000.693548 17634.387492,17025.395282 17621.941418,17067.969204 17613.822675,17140.140985 17610.775308,17203.563815 17664.581846,17232.507395 17532.984258,17486.663855 17631.208388,17552.401912 17737.249726,17615.429103 17830.069256,17648.496747 17871.022321,17665.017333 17869.506780,17682.764666 17879.691851,17705.616926 17886.390735,17720.647590 17919.822586,17778.872781 17938.082362,17802.161895 17964.424910,17832.579531 17992.524215,17854.487308 18021.197545,17872.473175 18083.047077,17909.894906 18119.083350,17924.432947 18145.516076,17931.937737 18178.268310,17930.646578 18208.310244,17922.653276 18204.054980,17818.310787 18209.090544,17801.196225 18229.808372,17766.299793 18298.855531,17661.939764 18357.973125,17581.874059 18360.965132,17568.705473 18359.435865,17560.036926 18374.770595,17574.633427 18422.051230,17620.681659 18436.464973,17635.576710 18434.777990,17722.898490 18433.475335,17848.206671 18435.580741,17906.106127 18448.524379,17966.379682 18469.360533,18030.740065 18487.103187,18082.313790 18505.317945,18117.058902 18557.672074,18184.787137 18586.725630,18221.906774 18598.805195,18244.056190 18597.429374,18258.650566 18590.491957,18269.775738 18568.046538,18286.264460 18551.328905,18302.775268 18547.007086,18319.081382 18554.287210,18349.931054 18573.214580,18383.868144 18582.920046,18416.857066 18593.433251,18450.558034 18604.694599,18480.967597 18620.936157,18514.691074 18631.564595,18531.968431 18642.524425,18542.352683 18651.605051,18549.004573 18705.113749,18572.405243 18741.150022,18586.943426 18752.536231,18591.955773 18763.450904,18598.656218 18795.695938,18553.253654 18850.495255,18470.884348 19052.303194,18122.937692 19117.112605,18114.487725 19117.112613,18066.558315 19129.321713,18046.947351 19172.782381,17977.138914 19254.561282,17829.700727 19384.660315,17586.382780 19460.469354,17481.854013 19584.208376,17344.105309 19690.117111,17196.216542 19825.565963,16973.789121 19780.826321,16944.369336 19752.016952,16922.309524 19742.196819,16911.899650 19700.527041,16878.189901 19687.657572,16864.710022 19666.267486,16848.490113 19661.777780,16846.580331 19652.597777,16847.630419 19626.498279,16859.110336 19615.338283,16855.520239 19545.468834,16799.130646 19437.610017,16704.141693 19411.869946,16678.401613 19342.001064,16620.792484 19330.360898,16607.312747 19301.551389,16582.792770 19263.561455,16544.792914 19248.851851,16534.993303 19223.722043,16509.863628 19178.972637,16462.683770 19144.015194,16429.272571 19089.905557,16506.912510 19085.974865,16533.856691 19043.758384,16499.268847 18996.558010,16474.829272 18942.757130,16468.367913 18911.308802,16471.043102 18729.665212,16688.995247 18621.615427,16621.422151 18599.745021,16646.219577 18548.272505,16689.917758 18450.076522,16755.636526 18406.372663,16772.473906 18303.508755,16811.027093 18260.355276,16853.439773 18221.338169,16900.938550 18221.122574,16901.255502 18199.458563,16922.032208 18184.869705,16936.023537 18184.599892,16936.076763 18156.276346,16971.450534 18143.277342,17002.110795 18110.736462,16975.834203 18080.734596,16947.937178 18061.475834,16920.892486 18060.889636,16919.829656 18051.727476,16887.726473 18046.695035,16862.365352 17865.650571,16830.095238 17761.543039,16983.150507"/>
    <poly id="08015002" type="unknown" color="51,128,255" fill="1" layer="-1.00" shape="17400.403307,16716.695960 17393.611129,16737.678497 17375.513567,16785.183931 17349.259055,16831.444347 17330.426234,16870.989741 17525.963844,16978.728423 17535.857595,16951.489799 17634.387492,17025.395282 17641.609163,17000.693548 17662.061292,16923.532216 17658.646879,16893.339948 17695.202251,16912.563756 17761.543039,16983.150507 17865.650571,16830.095238 18046.695035,16862.365352 18041.728702,16837.374835 18020.607887,16686.581524 17996.560606,16557.958154 17994.544799,16541.248169 17755.352044,16362.070833 17660.124024,16299.063180 17554.746742,16239.960590 17544.294396,16266.985175 17487.120968,16430.759066 17472.774311,16481.706100 17448.049485,16569.509744 17400.403307,16716.695960"/>
    <poly id="08015003" type="unknown" color="51,128,255" fill="1" layer="-1.00" shape="15662.612098,17580.305778 14902.493379,18168.996458 15019.882568,18204.896009 15056.691899,18218.865830 15134.061462,18272.155411 15244.520299,18396.094448 15377.698881,18592.372456 15396.788618,18628.671894 15476.988060,18894.189407 15444.528003,18903.739723 15419.768510,18908.689635 15396.788568,18889.899426 15240.610175,18932.599309 15168.030696,18939.558792 15065.611710,18969.398840 15034.792190,18970.398811 15006.512084,19101.117255 14983.482577,19179.706358 14983.372433,19230.406231 14990.942332,19253.225791 15049.201761,19331.865163 15152.530947,19446.424174 15239.619839,19580.672855 15329.109298,19725.911521 15348.989077,19781.620629 15354.268818,19828.960160 15317.039017,20008.948441 15313.139182,20050.778469 15321.999257,20063.457969 15361.318862,20095.177673 15489.597677,20104.127807 15558.156858,20118.107402 15847.634301,20266.556255 15915.243187,20310.325805 15953.033095,20358.075441 15974.902921,20403.835029 15999.522687,20441.624383 16081.861692,20548.163328 16154.871231,20536.143795 16230.440171,20512.263828 16323.899145,20446.614848 16428.708205,20520.483952 16490.947735,20548.073799 16576.457126,20577.923084 16677.876130,20571.953249 16765.375009,20552.053659 16856.844076,20504.303906 17008.113041,20449.844661 17113.381764,20420.744829 17232.690368,20428.704892 17272.470328,20444.624840 17344.059594,20456.554935 17367.919050,20454.564752 17397.748930,20438.655009 17479.277965,20363.055374 17533.967705,20337.686054 17633.396663,20329.726031 17736.805854,20325.745818 17810.374978,20315.805937 17836.234815,20307.846043 17859.634496,20251.336565 17864.074520,20222.297302 17866.064715,20180.517527 17872.024245,20128.788091 17872.064166,20123.507774 17911.363969,20068.258464 17969.923389,20007.838974 17986.393297,19969.389676 17986.393302,19943.759734 17973.583716,19908.979940 17958.943628,19841.240953 17960.773578,19799.131345 17969.923436,19757.021879 17980.903658,19725.892063 17999.473179,19688.302316 18030.462720,19641.782563 18106.552470,19552.973429 18167.131673,19441.624740 18348.459877,19182.997125 18763.450904,18598.656218 18752.536231,18591.955773 18741.150022,18586.943426 18705.113749,18572.405243 18651.605051,18549.004573 18642.524425,18542.352683 18631.564595,18531.968431 18620.936157,18514.691074 18604.694599,18480.967597 18593.433251,18450.558034 18582.920046,18416.857066 18573.214580,18383.868144 18554.287210,18349.931054 18547.007086,18319.081382 18551.328905,18302.775268 18568.046538,18286.264460 18590.491957,18269.775738 18597.429374,18258.650566 18598.805195,18244.056190 18586.725630,18221.906774 18557.672074,18184.787137 18505.317945,18117.058902 18487.103187,18082.313790 18469.360533,18030.740065 18448.524379,17966.379682 18435.580741,17906.106127 18433.475335,17848.206671 18434.777990,17722.898490 18436.464973,17635.576710 18422.051230,17620.681659 18374.770595,17574.633427 18359.435865,17560.036926 18360.965132,17568.705473 18357.973125,17581.874059 18298.855531,17661.939764 18229.808372,17766.299793 18209.090544,17801.196225 18204.054980,17818.310787 18208.310244,17922.653276 18178.268310,17930.646578 18145.516076,17931.937737 18119.083350,17924.432947 18083.047077,17909.894906 18021.197545,17872.473175 17992.524215,17854.487308 17964.424910,17832.579531 17938.082362,17802.161895 17919.822586,17778.872781 17886.390735,17720.647590 17879.691851,17705.616926 17869.506780,17682.764666 17871.022321,17665.017333 17830.069256,17648.496747 17737.249726,17615.429103 17631.208388,17552.401912 17532.984258,17486.663855 17664.581846,17232.507395 17610.775308,17203.563815 17613.822675,17140.140985 17621.941418,17067.969204 17634.387492,17025.395282 17535.857595,16951.489799 17525.963844,16978.728423 17330.426234,16870.989741 17315.114569,16903.141474 17298.004245,16940.773123 17254.610105,17036.211076 17226.585953,17093.472092 17206.562332,17132.667267 17163.780016,17206.662330 17075.991764,17366.198486 17052.759561,17352.035155 16930.360440,17282.429826 16828.346474,17224.192024 16723.097161,17170.373147 16636.156321,17134.024009 16555.189014,17108.892200 16461.647952,17090.521278 16443.532139,17087.413474 16407.671398,17081.260860 16291.149537,17082.949928 16233.150274,17114.135509 16215.708140,17123.513691 16125.103427,17224.747936 16082.607768,17308.912220 15970.161367,17532.359582 15793.185190,17476.089728 15749.255399,17513.203263 15662.612098,17580.305778"/>
    <poly id="08015004" type="unknown" color="51,128,255" fill="1" layer="-1.00" shape="16649.468419,16551.539587 16621.425288,16666.479367 16610.648906,16723.455709 16586.392514,16741.536270 16538.570679,16788.693037 16513.081016,16822.305523 16504.016095,16853.784000 16489.182050,16898.871313 16471.328816,16966.226808 16456.088772,17040.041671 16443.532139,17087.413474 16461.647952,17090.521278 16555.189014,17108.892200 16636.156321,17134.024009 16723.097161,17170.373147 16828.346474,17224.192024 16930.360440,17282.429826 17052.759561,17352.035155 17075.991764,17366.198486 17163.780016,17206.662330 17206.562332,17132.667267 17226.585953,17093.472092 17254.610105,17036.211076 17298.004245,16940.773123 17315.114569,16903.141474 17330.426234,16870.989741 17349.259055,16831.444347 17375.513567,16785.183931 17393.611129,16737.678497 17400.403307,16716.695960 17448.049485,16569.509744 17472.774311,16481.706100 17487.120968,16430.759066 17544.294396,16266.985175 17554.746742,16239.960590 17540.699778,16232.081943 17489.253891,16195.964828 17457.361779,16169.159794 17432.350882,16142.644109 17405.430062,16114.103979 17348.509644,16046.714071 17294.291457,15986.349344 17186.528152,16115.428370 17091.849067,16228.835896 17062.205485,16223.370272 17027.062161,16255.043813 16991.991596,16304.585439 16723.565911,16181.621577 16691.412619,16166.709819 16669.812019,16232.362917 16688.241237,16279.779317 16646.204935,16383.977406 16653.110754,16529.261637 16649.468419,16551.539587"/>
    <poly id="08015005" type="unknown" color="51,128,255" fill="1" layer="-1.00" shape="15481.444384,16566.675488 15431.271385,16612.544486 15378.051597,16666.314778 15378.257849,16666.539008 15374.929355,16672.781222 15420.759143,16725.970431 15446.428436,16742.480679 15466.598560,16760.820303 15517.928078,16833.729480 15541.757785,16943.778667 15564.957284,16975.608359 15659.096289,17017.137875 15682.926012,17048.317384 15682.925999,17112.516952 15671.926370,17209.266036 15637.096883,17247.785544 15730.595883,17363.334620 15781.925407,17407.353878 15789.255081,17418.363824 15787.425275,17447.243408 15794.754946,17474.763172 15793.185190,17476.089728 15970.161367,17532.359582 16082.607768,17308.912220 16125.103427,17224.747936 16215.708140,17123.513691 16233.150274,17114.135509 16291.149537,17082.949928 16407.671398,17081.260860 16443.532139,17087.413474 16456.088772,17040.041671 16471.328816,16966.226808 16489.182050,16898.871313 16504.016095,16853.784000 16513.081016,16822.305523 16538.570679,16788.693037 16586.392514,16741.536270 16610.648906,16723.455709 16621.425288,16666.479367 16649.468419,16551.539587 16653.110754,16529.261637 16646.204935,16383.977406 16688.241237,16279.779317 16669.812019,16232.362917 16691.412619,16166.709819 16675.198237,16156.433576 16665.824582,16147.013345 16655.888797,16128.640882 16656.025546,16114.538426 16657.660421,16103.606341 16663.593330,16090.208004 16668.396456,16054.777889 16675.542251,16028.685615 16681.792255,16009.452047 16700.046944,15983.089963 16726.033199,15945.644184 16596.429405,15851.258836 16564.763499,15853.904296 16556.136853,15859.198909 16549.760013,15866.700154 16541.149220,15880.676054 16540.869215,15880.394916 16538.960566,15881.285326 16406.860200,15918.354819 16219.304542,15970.985247 16142.545212,16083.949269 16131.135925,16099.528756 16096.591111,16154.924015 16080.471431,16146.459735 16029.180267,16118.412653 16009.275424,16103.501746 15980.805942,16078.062763 15955.134526,16058.770301 15934.114045,16078.532874 15906.301956,16105.570196 15892.352240,16118.389128 15880.018712,16123.378396 15855.744486,16128.413951 15850.869312,16129.222397 15821.672773,16134.064298 15803.050033,16137.820721 15787.004103,16143.297095 15786.804363,16143.278692 15772.314457,16148.161082 15749.640277,16161.767791 15715.485607,16188.500618 15801.607636,16374.198587 15820.347153,16421.205456 15813.471600,16423.483857 15805.720500,16428.167073 15799.679440,16435.017002 15791.320624,16446.733469 15783.267433,16463.328222 15780.592377,16476.437353 15788.301431,16486.783808 15729.781935,16526.756704 15640.875552,16425.288568 15588.102103,16470.521255 15564.379814,16490.854171 15481.444384,16566.675488"/>
    <poly id="08015006" type="unknown" color="51,128,255" fill="1" layer="-1.00" shape="16700.046944,15983.089963 16681.792255,16009.452047 16675.542251,16028.685615 16668.396456,16054.777889 16663.593330,16090.208004 16657.660421,16103.606341 16656.025546,16114.538426 16655.888797,16128.640882 16665.824582,16147.013345 16675.198237,16156.433576 16691.412619,16166.709819 16723.565911,16181.621577 16991.991596,16304.585439 17027.062161,16255.043813 17062.205485,16223.370272 17091.849067,16228.835896 17186.528152,16115.428370 17294.291457,15986.349344 17266.705166,15955.635849 17236.927957,15922.482573 17185.735182,15865.473518 17125.258360,15798.361632 17092.852672,15762.400661 17021.414039,15681.553099 16967.215234,15685.973147 16916.315192,15694.655982 16901.632198,15703.457167 16894.086501,15708.413311 16870.203965,15736.886898 16839.341828,15778.577060 16831.388014,15789.321294 16771.512791,15881.652009 16726.033199,15945.644184 16700.046944,15983.089963"/>
    <poly id="08015007" type="unknown" color="51,128,255" fill="1" layer="-1.00" shape="16376.852739,15540.701547 16586.745054,15701.556103 16569.733970,15707.648403 16536.774775,15714.605346 16525.444339,15717.944028 16524.366646,15718.367008 16487.924374,15732.657731 16464.274282,15746.948032 16453.879271,15759.873417 16442.456110,15781.935204 16437.678183,15807.848264 16442.765833,15829.407942 16455.824851,15841.929320 16461.478743,15845.251160 16406.860200,15918.354819 16538.960566,15881.285326 16540.869215,15880.394916 16541.149220,15880.676054 16549.760013,15866.700154 16556.136853,15859.198909 16564.763499,15853.904296 16596.429405,15851.258836 16726.033199,15945.644184 16771.512791,15881.652009 16831.388014,15789.321294 16839.341828,15778.577060 16870.203965,15736.886898 16894.086501,15708.413311 16901.632198,15703.457167 16916.315192,15694.655982 16967.215234,15685.973147 17021.414039,15681.553099 16961.074390,15610.479949 16884.202417,15516.239144 16831.873488,15443.643239 16821.423698,15429.802525 16729.039340,15307.435229 16701.450916,15327.719448 16686.042992,15354.299676 16657.090069,15400.871240 16656.395294,15401.610039 16623.439774,15436.668838 16595.773066,15463.484620 16576.041772,15472.193083 16559.366184,15478.575155 16522.990872,15485.659642 16473.791811,15492.481393 16364.452688,15491.202380 16345.359829,15495.201578 16298.451912,15496.009592 16254.775661,15498.171624 16245.714852,15501.719249 16233.941049,15513.930890 16211.953999,15537.721684 16194.724769,15557.257479 16223.991946,15553.108796 16376.852739,15540.701547"/>
    <poly id="08015008" type="unknown" color="51,128,255" fill="1" layer="-1.00" shape="15496.390600,16238.728347 15554.024337,16305.923611 15556.741429,16324.461414 15557.587247,16330.232094 15640.875552,16425.288568 15729.781935,16526.756704 15788.301431,16486.783808 15780.592377,16476.437353 15783.267433,16463.328222 15791.320624,16446.733469 15799.679440,16435.017002 15805.720500,16428.167073 15813.471600,16423.483857 15820.347153,16421.205456 15801.607636,16374.198587 15715.485607,16188.500618 15749.640277,16161.767791 15772.314457,16148.161082 15786.804363,16143.278692 15787.004103,16143.297095 15803.050033,16137.820721 15821.672773,16134.064298 15850.869312,16129.222397 15855.744486,16128.413951 15880.018712,16123.378396 15892.352240,16118.389128 15906.301956,16105.570196 15934.114045,16078.532874 15955.134526,16058.770301 15980.805942,16078.062763 16009.275424,16103.501746 16029.180267,16118.412653 16080.471431,16146.459735 16096.591111,16154.924015 16131.135925,16099.528756 16142.545212,16083.949269 16219.304542,15970.985247 16406.860200,15918.354819 16461.478743,15845.251160 16455.824851,15841.929320 16442.765833,15829.407942 16437.678183,15807.848264 16442.456110,15781.935204 16453.879271,15759.873417 16464.274282,15746.948032 16487.924374,15732.657731 16524.366646,15718.367008 16525.444339,15717.944028 16536.774775,15714.605346 16569.733970,15707.648403 16586.745054,15701.556103 16376.852739,15540.701547 16223.991946,15553.108796 16194.724769,15557.257479 16188.041170,15564.836016 16140.266472,15624.129541 16130.685431,15629.411838 16121.698373,15634.366990 16089.383269,15672.146566 16076.242000,15684.221885 16043.587446,15669.416013 15987.005772,15643.616614 15955.107004,15633.068998 15923.250137,15622.535680 15812.982247,15591.565662 15787.515242,15583.083403 15782.646578,15595.412257 15771.047885,15606.755996 15721.779018,15704.042150 15682.847412,15758.539920 15717.326241,15797.268241 15791.332058,15880.396896 15841.591954,15934.484018 15793.984726,15974.837429 15747.183679,16014.506823 15665.863588,16083.436166 15583.378034,16158.358437 15496.390600,16238.728347"/>
    <poly id="08015009" type="unknown" color="51,128,255" fill="1" layer="-1.00" shape="15574.929938,14475.819896 15553.022168,14463.128503 15519.904278,14502.295221 15480.444389,14468.928471 15410.377293,14570.993108 15469.355002,14613.176339 15502.131437,14638.128924 15582.976855,14692.771107 15610.141300,14713.554617 15629.478346,14730.608595 15653.148389,14760.739572 15677.942700,14783.599054 15700.058420,14805.748048 15736.837596,14831.251442 15764.496085,14847.373251 15944.345064,14942.131194 16002.686879,15024.058571 16044.015085,14999.686112 16059.710801,14969.896160 16081.702526,14928.469723 16113.066357,14853.928379 16113.996121,14851.583869 16129.449205,14812.612358 16144.047129,14766.763171 16150.987237,14744.966525 16164.333911,14720.044243 16175.514439,14699.165612 16193.662108,14675.676197 16249.819263,14602.989290 16239.511173,14596.610468 16193.622208,14570.683526 16134.522049,14535.748999 16112.936327,14521.222710 16083.907824,14501.687472 15986.763938,14433.273655 15845.941259,14334.098210 15812.307255,14310.411735 15681.601136,14216.037711 15608.036087,14393.034402 15596.973902,14419.650021 15574.929938,14475.819896"/>
    <poly id="08015010" type="unknown" color="51,128,255" fill="1" layer="-1.00" shape="15944.345064,14942.131194 15911.534775,15026.966189 15876.827725,15123.288891 15864.365235,15137.419373 15851.351367,15165.515706 15934.706075,15204.651020 16072.060154,15114.611605 16106.165125,15147.815985 16135.001108,15163.986350 16167.257880,15174.256933 16216.462599,15188.732691 16216.330520,15207.620712 16201.590180,15294.600906 16188.046872,15358.675615 16173.787277,15397.329184 16164.107000,15413.728301 16150.371178,15436.996459 16121.308267,15467.139175 16075.260034,15509.982337 16070.124671,15526.110651 16082.131473,15556.530832 16093.398909,15582.167571 16110.625016,15604.796168 16130.685431,15629.411838 16140.266472,15624.129541 16188.041170,15564.836016 16194.724769,15557.257479 16211.953999,15537.721684 16233.941049,15513.930890 16245.714852,15501.719249 16254.775661,15498.171624 16298.451912,15496.009592 16345.359829,15495.201578 16364.452688,15491.202380 16473.791811,15492.481393 16522.990872,15485.659642 16559.366184,15478.575155 16576.041772,15472.193083 16595.773066,15463.484620 16623.439774,15436.668838 16656.395294,15401.610039 16657.090069,15400.871240 16686.042992,15354.299676 16701.450916,15327.719448 16729.039340,15307.435229 16607.808670,15146.860270 16595.870947,15131.047771 16492.824318,14997.526139 16407.505486,14880.011934 16510.216237,14787.040811 16457.845399,14749.498332 16371.137006,14687.341029 16321.666442,14651.878204 16279.713120,14621.488736 16249.819263,14602.989290 16193.662108,14675.676197 16175.514439,14699.165612 16164.333911,14720.044243 16150.987237,14744.966525 16144.047129,14766.763171 16129.449205,14812.612358 16113.996121,14851.583869 16113.066357,14853.928379 16081.702526,14928.469723 16059.710801,14969.896160 16044.015085,14999.686112 16002.686879,15024.058571 15944.345064,14942.131194"/>
    <poly id="08015011" type="unknown" color="51,128,255" fill="1" layer="-1.00" shape="15436.371058,15225.502378 15503.856217,15282.780824 15526.984511,15311.212519 15548.021826,15348.847147 15556.317219,15364.177352 15566.733175,15383.425786 15595.376775,15414.713872 15636.166332,15459.775573 15697.094871,15521.958918 15702.109341,15510.579788 15754.851945,15390.887148 15799.626437,15281.767172 15811.781745,15252.143128 15816.100450,15241.618027 15833.619314,15203.796547 15851.351367,15165.515706 15864.365235,15137.419373 15876.827725,15123.288891 15911.534775,15026.966189 15944.345064,14942.131194 15764.496085,14847.373251 15736.837596,14831.251442 15693.669672,14901.239092 15699.957468,14905.863423 15779.014138,14962.563316 15718.959691,15104.210300 15709.164188,15096.346093 15697.265959,15088.067682 15685.881167,15081.718871 15670.711775,15083.847784 15652.343983,15091.277822 15631.094177,15102.813089 15606.279757,15120.064818 15587.002162,15123.843749 15563.226643,15167.196530 15547.020892,15173.317849 15521.011146,15166.831439 15494.569647,15143.511605 15458.680881,15118.910653 15437.490817,15109.624195 15416.342370,15110.950746 15392.590923,15120.558820 15366.819134,15137.787474 15436.371058,15225.502378"/>
    <poly id="08015012" type="unknown" color="51,128,255" fill="1" layer="-1.00" shape="15754.851945,15390.887148 15702.109341,15510.579788 15697.094871,15521.958918 15753.678380,15573.407228 15764.731356,15584.239941 15782.646578,15595.412257 15787.515242,15583.083403 15812.982247,15591.565662 15923.250137,15622.535680 15955.107004,15633.068998 15987.005772,15643.616614 16043.587446,15669.416013 16076.242000,15684.221885 16089.383269,15672.146566 16121.698373,15634.366990 16130.685431,15629.411838 16110.625016,15604.796168 16093.398909,15582.167571 16082.131473,15556.530832 16070.124671,15526.110651 16075.260034,15509.982337 16121.308267,15467.139175 16150.371178,15436.996459 16164.107000,15413.728301 16173.787277,15397.329184 16188.046872,15358.675615 16201.590180,15294.600906 16216.330520,15207.620712 16216.462599,15188.732691 16167.257880,15174.256933 16135.001108,15163.986350 16106.165125,15147.815985 16072.060154,15114.611605 15934.706075,15204.651020 15851.351367,15165.515706 15833.619314,15203.796547 15816.100450,15241.618027 15811.781745,15252.143128 15799.626437,15281.767172 15754.851945,15390.887148"/>
    <poly id="08015013" type="unknown" color="51,128,255" fill="1" layer="-1.00" shape="15179.331906,14177.095262 15200.492669,14178.065091 15274.033606,14241.601607 15273.340813,14242.421237 15153.695271,14384.045276 15325.046724,14388.624481 15350.042762,14389.292223 15435.950363,14392.199308 15474.048028,14406.103588 15514.513558,14435.181364 15553.022168,14463.128503 15574.929938,14475.819896 15596.973902,14419.650021 15608.036087,14393.034402 15681.601136,14216.037711 15671.749293,14208.924620 15640.316825,14186.829417 15739.809368,14043.224530 15778.118254,13984.220776 15809.156492,13936.415804 15834.726564,13887.283285 15753.426879,13845.519774 15707.776442,13822.068852 15658.017096,13792.878959 15657.869732,13793.130369 15577.877033,13929.351225 15577.367701,13930.217995 15551.783769,13912.872119 15432.499247,13831.998925 15334.600100,13968.207462 15225.231240,14023.297078 15176.691552,14092.456462 15179.331906,14177.095262"/>
    <poly id="08015014" type="unknown" color="51,128,255" fill="1" layer="-1.00" shape="15026.376943,14361.427841 15019.043161,14370.413339 15017.522946,14397.053449 15019.203398,14410.542952 15028.892870,14428.322988 15078.972562,14476.812558 15047.132652,14626.800949 15043.122685,14658.920550 15051.142597,14706.080301 15054.806867,14712.289816 15080.044681,14755.063485 15167.491857,14903.268107 15170.417894,14906.461835 15216.708884,14956.980945 15266.790698,15011.637419 15292.457015,15044.005747 15366.819134,15137.787474 15392.590923,15120.558820 15416.342370,15110.950746 15437.490817,15109.624195 15458.680881,15118.910653 15494.569647,15143.511605 15521.011146,15166.831439 15547.020892,15173.317849 15563.226643,15167.196530 15587.002162,15123.843749 15606.279757,15120.064818 15631.094177,15102.813089 15652.343983,15091.277822 15670.711775,15083.847784 15685.881167,15081.718871 15697.265959,15088.067682 15709.164188,15096.346093 15718.959691,15104.210300 15779.014138,14962.563316 15699.957468,14905.863423 15693.669672,14901.239092 15736.837596,14831.251442 15700.058420,14805.748048 15677.942700,14783.599054 15653.148389,14760.739572 15629.478346,14730.608595 15610.141300,14713.554617 15582.976855,14692.771107 15502.131437,14638.128924 15469.355002,14613.176339 15410.377293,14570.993108 15480.444389,14468.928471 15519.904278,14502.295221 15553.022168,14463.128503 15514.513558,14435.181364 15474.048028,14406.103588 15435.950363,14392.199308 15350.042762,14389.292223 15325.046724,14388.624481 15153.695271,14384.045276 15273.340813,14242.421237 15274.033606,14241.601607 15200.492669,14178.065091 15179.331906,14177.095262 15140.981971,14221.005077 15026.376943,14361.427841"/>
    <poly id="08015015" type="unknown" color="51,128,255" fill="1" layer="-1.00" shape="15778.118254,13984.220776 15739.809368,14043.224530 15640.316825,14186.829417 15671.749293,14208.924620 15681.601136,14216.037711 15868.655946,14204.945416 15905.443197,14202.763847 15940.909695,14200.635505 16002.076633,14196.469840 16068.870568,14191.921258 16107.357667,14187.051755 16123.937134,14184.954128 16147.291790,14176.463243 16183.285035,14156.640793 16214.071859,14132.227279 16222.766030,14123.582375 16257.057873,14089.483917 16296.161046,14049.802772 16139.418442,13868.727562 16113.447488,13840.304644 16108.651592,13822.281410 16094.863122,13789.429234 16084.226899,13771.772072 16063.870482,13751.059767 15998.236329,13843.775523 15905.517039,13739.018248 15891.405517,13768.588924 15834.755301,13887.298573 15809.156492,13936.415804 15778.118254,13984.220776"/>
    <poly id="08015016" type="unknown" color="51,128,255" fill="1" layer="-1.00" shape="15868.655946,14204.945416 15681.601136,14216.037711 15812.307255,14310.411735 15845.941259,14334.098210 15986.763938,14433.273655 16083.907824,14501.687472 16112.936327,14521.222710 16134.522049,14535.748999 16193.622208,14570.683526 16239.511173,14596.610468 16249.819263,14602.989290 16279.713120,14621.488736 16321.666442,14651.878204 16371.137006,14687.341029 16423.628751,14643.263894 16484.403012,14592.155633 16563.526239,14521.627798 16465.330714,14408.033944 16400.670382,14332.760011 16259.175449,14168.039332 16222.766030,14123.582375 16214.071859,14132.227279 16183.285035,14156.640793 16147.291790,14176.463243 16123.937134,14184.954128 16107.357667,14187.051755 16068.870568,14191.921258 16002.076633,14196.469840 15940.909695,14200.635505 15905.443197,14202.763847 15868.655946,14204.945416"/>
    <poly id="08015017" type="unknown" color="51,128,255" fill="1" layer="-1.00" shape="18868.469796,16138.799756 18596.293697,16418.964380 18664.175936,16451.417226 18692.894848,16466.828831 18731.563283,16478.454707 18621.615427,16621.422151 18729.665212,16688.995247 18911.308802,16471.043102 18942.757130,16468.367913 18996.558010,16474.829272 19043.758384,16499.268847 19085.974865,16533.856691 19089.905557,16506.912510 19144.015194,16429.272571 19136.923056,16422.494269 19088.883521,16373.814726 19042.913589,16318.045169 19001.854217,16280.665486 18979.174383,16252.476000 18948.774593,16222.836093 18929.534941,16199.156274 18889.085266,16163.606957 18878.665629,16149.506622 18868.469796,16138.799756"/>