<?xml version="1.0" encoding="UTF-8"?>

<!-- generated on 02/22/21 18:03:52 by Eclipse SUMO polyconvert Version v1_8_0+0719-6455967092
<configuration xmlns:xsi="http://www.w3.org/2001/XMLSchema-instance" xsi:noNamespaceSchemaLocation="http://sumo.dlr.de/xsd/polyconvertConfiguration.xsd">

    <input>
        <net-file value="../../data/simulations/20210222_MARESME/MARESME.net.xml"/>
        <shapefile-prefixes value="..\..\data\ATM\proc\shp\EMO96_IDESCAT_MARESME\EMO96_MARESME"/>
        <shapefile.id-column value="CZT"/>
    </input>

    <output>
        <output-file value="..\..\data\ATM\proc\shp\EMO96_IDESCAT_MARESME\EMO96_MARESME.poly.xml"/>
    </output>

    <projection>
        <proj.utm value="true"/>
    </projection>

    <processing>
        <offset.x value="0"/>
        <offset.y value="0"/>
    </processing>

</configuration>
-->

<additional xmlns:xsi="http://www.w3.org/2001/XMLSchema-instance" xsi:noNamespaceSchemaLocation="http://sumo.dlr.de/xsd/additional_file.xsd">
    <location netOffset="-436361.31,-4589700.76" convBoundary="0.00,0.00,45165.07,35890.68" origBoundary="2.237438,41.456522,2.788503,41.781918" projParameter="+proj=utm +zone=31 +ellps=WGS84 +datum=WGS84 +units=m +no_defs"/>

    <poly id="08003001" type="unknown" color="51,128,255" fill="1" layer="-1.00" shape="3586.101448,4166.546142 3585.536766,4170.952894 3566.086459,4221.582550 3513.827151,4285.281838 3464.407817,4328.061015 3409.298210,4362.290979 3362.948884,4384.871010 3273.409547,4496.329688 3251.559665,4538.159146 3223.999979,4548.619267 3188.850573,4552.759315 3135.670709,4577.958623 3113.281063,4596.618729 3062.911584,4618.088224 2988.272405,4660.088252 2955.622518,4663.818060 2874.463529,4689.017505 2834.343678,4706.757612 2811.023841,4738.487497 2783.974043,4805.686710 2748.224560,4838.784200 2731.464883,4864.226289 2696.314908,4880.905974 2664.735488,4924.285226 2543.056287,5130.143662 2445.607139,5371.530744 2458.576974,5390.341052 2546.066189,5580.229190 2568.426084,5690.147860 2572.495915,5742.017584 2569.226295,5833.446577 2670.455309,5924.875588 2713.194571,5959.085044 2758.614265,5990.174950 2836.983810,6032.624458 2974.122126,6101.193998 3049.221504,6120.783886 3192.889980,6117.524076 3330.038496,6146.913584 3414.938044,6195.893098 3570.676160,6306.111899 3670.905346,6353.761746 3723.734981,6387.051207 3870.623364,6437.510880 3924.312691,6470.170543 3972.212366,6521.680288 3983.102551,6522.760107 4248.869934,6414.281149 4639.776037,6427.520867 5535.147407,6422.791230 5624.446498,6420.661339 5863.133958,6216.423496 5858.734430,6189.293446 5859.094421,6162.503847 5855.164305,6132.154306 5825.164432,6038.945053 5818.734812,5921.096072 5857.574323,5511.670023 5860.890096,5392.303524 5866.094569,5204.953285 5898.973849,4813.742990 5927.653909,4388.961257 5954.823494,4156.993258 5972.663490,3679.747817 5703.236400,3604.148687 5700.878158,3598.536129 5683.696645,3557.638976 5676.326348,3514.639663 5662.816468,3472.870078 5650.536737,3454.440283 5637.036902,3442.160547 5598.360823,3429.939695 5543.707897,3412.670682 5581.777400,3379.500996 5528.968149,3354.930903 5450.378478,3324.221504 5484.768147,3235.772206 5498.268430,3112.913434 5560.897680,3111.683574 5604.807506,3104.923825 5634.476997,3094.503624 5649.006966,3080.353607 5655.146835,3066.833953 5656.056074,3061.194783 5667.426441,2990.674719 5750.925686,3009.094759 5820.925129,2824.816518 5756.135840,2713.317186 5606.337420,2644.517894 5547.998142,2610.728303 5548.617612,2585.548804 5554.757908,2557.608751 5499.498404,2511.539426 5482.308675,2501.709663 5463.278811,2494.339497 5441.788782,2489.419729 5409.239261,2488.189429 5346.619781,2482.049551 5350.299915,2436.600268 5347.230058,2404.040414 5300.570445,2357.051094 5271.690873,2278.281635 5273.560597,2250.481868 5307.940082,2121.483232 5213.390968,2128.852811 5159.001771,2095.313498 4996.913411,2104.743466 4981.963575,2127.183217 4974.483280,2121.203028 4825.474908,2034.603742 4807.395311,2159.282688 4808.415242,2196.142132 4816.945054,2236.081916 4817.964847,2255.881723 4817.284933,2271.921565 4811.825115,2290.011330 4805.005335,2302.471268 4792.385147,2317.491170 4777.025214,2327.731027 4766.795545,2340.360977 4755.535745,2356.411009 4751.775634,2373.130619 4743.245813,2389.520678 4708.075875,2429.549920 4701.016008,2447.599765 4698.875902,2485.669261 4593.770368,2683.647922 4510.787785,2839.955955 4425.968607,2999.924578 4332.329844,3113.603335 4258.550210,3187.482740 4211.410833,3250.842143 4176.940758,3331.951289 4159.186906,3363.397490 4147.611144,3383.900422 4095.391757,3445.990034 4021.772513,3500.569762 3936.322987,3559.058940 3840.764257,3636.668155 3817.154648,3670.417813 3787.494775,3726.057405 3758.984782,3833.475981 3747.585260,3861.045854 3712.025605,3916.055080 3681.455932,3950.265089 3634.505964,3994.144610 3619.306417,4013.154512 3611.696592,4027.414098 3605.776423,4042.724198 3597.446197,4078.033987 3586.101448,4166.546142"/>
    <poly id="08006001" type="unknown" color="51,128,255" fill="1" layer="-1.00" shape="23722.310268,13680.603509 23808.529724,13732.493203 23963.128151,13861.681840 24173.856134,13846.851933 24192.915578,13913.571126 24774.900292,14339.017566 24967.708504,14470.515753 25064.336700,14531.203523 25244.275300,14644.214158 25550.980289,14828.545820 25577.962550,14844.762190 25679.491685,14890.821751 25901.649327,14966.451156 26045.087766,15018.980848 26227.936134,15060.180533 26845.733922,15206.417250 27021.528371,15248.028589 27241.146151,15322.378011 27278.225863,15342.537809 27621.082809,15310.078357 27872.089940,14879.502312 27851.420247,14881.222118 27838.500523,14863.142542 27802.771007,14847.642463 27762.591139,14823.573070 27737.751668,14794.683148 27711.061870,14770.143211 27660.252003,14748.183764 27712.771928,14600.215138 27794.491087,14410.986971 27843.180695,14220.398836 27850.186910,14199.695737 27893.050057,14073.040049 27925.059541,13958.690991 27972.139606,13857.542373 27942.069504,13845.522256 27927.469466,13835.782525 27861.740628,13800.483060 27831.310681,13781.003173 27814.260811,13773.703082 27724.191641,13710.403680 27660.892109,13675.104073 27617.072601,13642.244250 27587.033218,13623.004590 27539.173455,13597.204629 27524.563791,13587.464899 27514.823497,13574.075194 27457.614285,13539.995266 27447.874557,13530.255536 27438.144596,13524.175689 27417.444610,13515.645302 27389.454869,13492.525634 27344.415259,13460.876145 27233.646670,13391.496754 27201.996621,13369.586854 27194.737017,13368.496844 27163.477251,13312.277271 27079.437836,13061.979825 27062.358241,13027.830255 27050.168116,13008.320643 27019.678856,12990.020373 26808.690838,12914.411496 26791.610674,12916.851133 26784.291187,12941.241012 26925.769732,12987.590491 26966.008915,13002.220262 26963.569274,13016.860220 26947.559159,13013.220436 26946.669315,13016.780378 26968.908903,13025.680378 26966.008911,13037.590358 26941.619597,13027.830242 26938.659160,13031.900081 26952.599247,13038.809893 26947.719400,13053.449851 26981.868969,13071.739929 26990.409123,13061.979816 27026.988553,13169.308796 27055.038177,13160.768646 27069.678131,13204.678472 27036.748237,13220.528196 27036.748232,13269.308097 27072.117895,13355.906939 27086.748087,13351.027096 27051.388191,13263.217919 27051.388195,13227.848247 27090.997723,13213.298325 27129.627645,13324.417141 27122.117762,13331.507297 27135.537615,13359.567113 27130.657345,13368.096931 27168.467075,13432.736331 27180.657203,13426.636527 27206.266616,13466.885904 27102.607564,13521.765600 26894.949591,13490.925673 26893.529890,13478.495886 26826.561979,13454.822715 26805.100686,13447.235965 26808.690783,13422.976178 26772.101008,13419.326200 26733.481261,13463.456004 26583.982791,13450.556364 26578.692849,13441.626072 26664.772037,13326.637171 26914.789482,13298.587434 26914.789481,13308.337356 26934.299517,13305.897294 26934.299519,13282.727942 26940.399467,13277.847673 26940.399469,13265.657971 26933.079420,13249.797909 26911.129745,13248.577946 26650.442242,13270.307891 26642.822237,13175.408702 26657.462340,13158.328964 26875.760085,13131.498902 26875.760086,13116.859510 26870.890010,13107.109588 26631.842590,13140.039029 26620.872564,13155.888755 26628.192460,13276.627961 26601.352743,13314.437269 26558.063085,13356.186888 26557.103028,13356.336942 26480.163934,13364.707073 26425.384166,13363.496590 26330.435147,13344.017263 26305.260319,13333.232113 26304.875277,13333.067196 26292.705675,13333.067194 26278.095869,13328.197116 26268.366050,13313.587309 26220.886091,13297.767728 26196.546323,13295.327520 26163.676880,13269.767788 26145.417100,13260.028056 26123.507205,13238.118299 26105.247425,13229.598105 26016.398358,13168.738766 25999.348488,13158.998611 25989.618526,13158.998609 25932.409174,13127.349119 25887.369422,13098.139270 25869.109641,13094.489293 25849.963131,13084.012319 25804.600340,13059.189828 25734.000857,13038.489834 25702.351374,13020.240243 25684.091594,13014.150061 25648.792136,12998.320148 25632.962228,12987.370648 25568.452927,12953.290720 25514.893123,12927.730843 25480.813626,12914.341277 25413.864261,12880.251581 25376.304803,12865.471757 25307.845422,12824.451724 25233.715726,12788.962285 25206.936321,12769.482398 25199.616272,12751.222617 25175.276507,12723.223105 25158.236830,12715.923154 25122.457058,12716.483302 25087.567273,12712.933123 25033.557875,12691.843418 24937.918756,12645.323647 24920.879079,12634.373581 24907.488810,12622.193645 24842.969741,12588.114282 24833.229588,12577.164217 24811.319835,12563.774511 24780.890454,12549.164843 24751.680611,12528.475046 24745.590857,12515.084776 24735.080620,12500.364976 24733.420833,12495.664912 24755.700779,12395.816093 24739.880638,12388.506375 24723.930961,12459.575409 24723.701068,12459.615329 24701.771352,12461.525532 24665.251225,12456.655451 24614.132051,12437.175562 24598.311910,12428.655934 24591.092368,12421.345651 24610.851702,12321.556852 24591.372385,12316.696965 24576.392393,12377.536332 24544.892384,12473.885088 24523.752711,12492.384951 24409.093908,12529.634663 24331.784771,12595.214006 24335.144401,12638.923524 24362.034362,12682.643378 24453.303674,12749.542643 24163.726344,13180.328612 24152.116344,13037.529597 24120.406412,13051.619733 24081.657142,13062.189281 24026.737515,13049.159557 24023.487293,13155.368796 24015.017347,13206.198197 23995.247687,13241.077787 23953.048042,13249.057783 23913.148744,13241.497643 23852.909018,13254.927826 23815.109470,13281.387162 23797.899775,13316.226974 23761.360087,13520.305036 23722.310268,13680.603509"/>
    <poly id="08007001" type="unknown" color="51,128,255" fill="1" layer="-1.00" shape="21733.188866,18455.096767 21761.108537,18456.857065 21807.908443,18481.096898 21844.017906,18494.506566 21889.797452,18496.966737 21923.217424,18503.656567 21929.066954,18490.286824 21964.996778,18496.966746 21968.337020,18494.466661 21974.186552,18466.887018 21979.206684,18461.037066 21995.916668,18475.246968 22010.116232,18497.806483 22029.336070,18503.656580 22044.375936,18497.806488 22061.926082,18471.067002 22095.225730,18464.956867 22176.404677,18467.726775 22239.074416,18465.216929 22248.264184,18481.926916 22247.434214,18527.046510 22264.313646,18536.886041 22308.423498,18522.036721 22325.973220,18491.956994 22365.252913,18491.956998 22391.152813,18475.247016 22432.632066,18430.477080 22479.421785,18410.767309 22573.010837,18467.417090 22600.100541,18496.966823 22664.130097,18531.446093 22726.909399,18559.545976 22738.019144,18553.616044 22775.539104,18597.235959 22812.308660,18600.585973 22875.807795,18617.295400 22959.367355,18583.865813 23037.646305,18638.035325 23079.225916,18658.464937 23117.975748,18687.354862 23115.865796,18732.454496 23137.705478,18745.844061 23148.275169,18766.274235 23177.864816,18805.033840 23214.514468,18836.033570 23267.354449,18801.503636 23289.203761,18778.253880 23319.503761,18757.824276 23358.253597,18749.364109 23400.562810,18744.304630 23438.592674,18729.634383 23530.921852,18730.934336 23558.371402,18745.134613 23635.880839,18758.524326 23666.180131,18738.094581 23699.300139,18728.224338 23712.689846,18707.794732 23757.779714,18705.674598 23781.738972,18690.885155 23804.288864,18665.515260 23858.548545,18647.895477 23899.417953,18650.715492 23933.237829,18664.105200 23973.407364,18681.724994 24002.297285,18689.475105 24107.285997,18734.564418 24169.315598,18771.044067 24234.144969,18791.574189 24251.589647,18809.746346 24269.634397,18828.543772 24302.464061,18871.973289 24351.793774,18946.662579 24402.523234,18977.672078 24430.713139,19008.671807 24444.802709,19056.581685 24447.622852,19131.270544 24446.212773,19159.460452 24447.622841,19221.469812 24444.802685,19259.519634 24454.662739,19276.429361 24485.672229,19315.888837 24519.492105,19332.798992 24550.491828,19363.798721 24582.911393,19411.717944 24649.150694,19465.257798 24713.980066,19466.667739 24760.479869,19463.847735 24798.529411,19444.118003 24864.768712,19497.677250 24976.097461,19513.176913 24997.237131,19518.807309 24999.077262,19544.977019 24954.957609,19855.623746 24935.227868,19886.623611 24921.138291,19903.533194 24911.268037,19954.262655 24908.458216,19988.082532 24880.268303,20021.902406 24894.358438,20078.281799 24909.868277,20110.691602 24904.228113,20131.831272 24854.898954,20164.240643 24853.488876,20178.330642 24873.218611,20202.290467 24860.538536,20282.619486 24852.088553,20306.569540 24854.898937,20310.799201 24895.768345,20315.029292 24943.687990,20323.489469 24994.417591,20358.718861 25039.517084,20372.809008 25062.066971,20392.538746 25073.246362,20397.228619 25096.556440,20276.379846 25240.314968,20141.800932 25255.484933,20087.701503 25273.424651,20059.832088 25318.754185,20011.882155 25342.393944,19992.182715 25394.943589,19936.353148 25417.923539,19906.133135 25457.992715,19866.733688 25506.592418,19827.324333 25524.332536,19808.924269 25538.122007,19791.194348 25552.572136,19778.714591 25572.932100,19743.245121 25606.431493,19699.245268 25621.541431,19690.045732 25691.821001,19617.495989 25712.540384,19593.216669 25722.540727,19575.356795 25736.110072,19565.356456 25759.680326,19533.927241 25779.180171,19526.497060 25825.159321,19487.737605 25844.209149,19474.597756 25857.999185,19458.177969 25873.758885,19427.968290 25888.209013,19419.428139 25925.648580,19353.089039 25963.748237,19310.399320 26028.117265,19244.059657 26032.717533,19211.869981 26047.817282,19175.090377 26113.506778,19109.401463 26131.816819,19056.431963 26140.386560,19039.291921 26152.886422,19023.581772 26181.456280,19001.082141 26232.885617,18979.292718 26244.675273,18969.652364 26273.955336,18938.582995 26333.594571,18890.373585 26364.674142,18843.223887 26394.674035,18821.084242 26422.883907,18795.014477 26470.743257,18715.735126 26483.243123,18659.665469 26496.093063,18639.665921 26502.883256,18630.375786 26518.243048,18618.595759 26549.672409,18607.876157 26567.522518,18597.515974 26582.882451,18584.306477 26591.672317,18572.776444 26603.241849,18550.736455 26616.811901,18541.096669 26655.021552,18470.737274 26668.951308,18458.237416 26699.671035,18408.597967 26707.520946,18385.388271 26684.311249,18368.958288 26666.091389,18362.528646 26628.452089,18359.968677 26614.671682,18349.668370 26601.522208,18317.268901 26596.921947,18280.489152 26596.091986,18250.389463 26621.452127,18162.180385 26625.171755,18103.150998 26623.202102,18032.211488 26627.881784,18010.042113 26628.241637,17928.972877 26612.521866,17879.683076 26603.241924,17862.183611 26583.592177,17783.974303 26566.812549,17732.904813 26574.672230,17692.544739 26571.452174,17675.765106 26581.812507,17623.975788 26610.021814,17580.765979 26621.452194,17551.126077 26626.451803,17507.556845 26630.741770,17496.836674 26632.171807,17486.486681 26647.521975,17449.697309 26671.091663,17412.917705 26698.241254,17378.267867 26726.091142,17321.848559 26737.170735,17309.348701 26788.710212,17231.539306 27378.865096,15927.552083 27404.034687,15930.692162 27469.784079,15706.354366 27604.432699,15342.467630 27621.082809,15310.078357 27278.225863,15342.537809 27241.146151,15322.378011 27021.528371,15248.028589 26845.733922,15206.417250 26227.936134,15060.180533 26045.087766,15018.980848 25901.649327,14966.451156 25679.491685,14890.821751 25577.962550,14844.762190 25550.980289,14828.545820 25244.275300,14644.214158 25064.336700,14531.203523 24967.708504,14470.515753 24774.900292,14339.017566 24192.915578,13913.571126 24173.856134,13846.851933 23963.128151,13861.681840 23808.529724,13732.493203 23722.310268,13680.603509 23716.950675,13703.283348 23717.060225,13854.891761 23688.980866,13923.091096 23678.200812,13946.931015 23667.480628,14046.220251 23694.330663,14142.379041 23725.080104,14205.258713 23784.589794,14299.527686 23790.269873,14324.267360 23829.379113,14448.966278 23875.178604,14576.334728 23905.268518,14652.553992 23933.198374,14711.193810 23925.338267,14770.482816 23908.908282,14798.332696 23873.908782,14849.762165 23753.980127,14972.130992 23706.060474,15037.610540 23690.340694,15072.610031 23677.480843,15115.469623 23669.630930,15152.609215 23655.701032,15171.519319 23616.101270,15196.268614 23581.061424,15251.178469 23562.481575,15266.898243 23499.632195,15290.467919 23487.482553,15301.177896 23466.772798,15303.317568 23424.633036,15282.607810 23349.634019,15271.177991 23276.064471,15269.747946 23223.915163,15276.178146 23188.205606,15275.468079 23131.775959,15281.177739 23091.066230,15281.898131 23076.776491,15272.607994 23057.486580,15269.037857 23022.487085,15273.327818 23006.066871,15279.038192 22991.067491,15290.467858 22969.637481,15290.467856 22936.777521,15275.468049 22860.348468,15267.607798 22841.778955,15261.178156 22756.789365,15246.348214 22721.199990,15252.608403 22698.319984,15261.438325 22670.300509,15293.147686 22644.490778,15347.687364 22600.590853,15412.436322 22584.131283,15439.876244 22565.471595,15446.466127 22532.541560,15451.956232 22508.402099,15445.366344 22468.892371,15450.856447 22454.622589,15462.926247 22438.152686,15481.585931 22418.402988,15496.945718 22393.163182,15502.435823 22377.793057,15509.025707 22366.823170,15544.145525 22353.653589,15559.505312 22283.404318,15599.015030 22269.144162,15608.894476 22248.284492,15640.724163 22236.214687,15667.064168 22213.164661,15725.233577 22202.184864,15764.743160 22164.875393,15810.842625 22092.435625,15870.102038 21886.098096,16025.950705 22016.816529,16241.788434 21774.519021,16411.096872 21754.131868,16515.199843 21738.769379,16593.645127 21750.058899,16631.284427 21763.228899,16659.514397 21789.828515,16756.993657 21762.668737,16740.963579 21639.019893,16864.642540 21554.330828,16898.522287 21505.401436,16913.571913 21443.712279,16928.881582 21496.871605,17003.340979 21539.401074,17077.790183 21571.290636,17145.159562 21599.640211,17251.528485 21590.330634,17631.335177 21733.188866,18455.096767"/>
    <poly id="08009001" type="unknown" color="51,128,255" fill="1" layer="-1.00" shape="9985.923389,13007.498178 10034.302809,13076.367668 10048.393372,13091.498557 10110.951975,13158.676553 10131.981648,13195.076216 10180.001227,13243.666151 10242.680577,13328.755124 10310.380199,13409.964231 10354.439364,13451.013849 10396.259194,13509.853411 10414.368919,13524.743225 10484.828104,13617.312495 10545.777599,13677.081823 10571.817636,13708.311446 10650.146687,13813.420496 10672.486637,13851.050029 10677.762705,13864.879559 10703.235931,13931.649291 10737.325613,13985.568521 10854.384535,14119.137297 10898.414114,14158.917267 10936.443967,14219.096691 11025.183031,14336.695268 11136.791757,14521.083678 11204.791342,14618.772878 11292.760317,14764.271023 11324.130215,14808.090679 11393.089284,14959.009425 11405.279263,14999.368935 11464.748602,15118.758096 11487.588111,15184.287340 11532.527912,15274.776246 11591.637272,15338.355794 11852.114725,15174.377654 12015.153514,15225.566926 12098.552422,15077.598307 12496.728326,15126.028050 12507.488426,15072.218393 12542.458200,15023.788716 12547.838320,15002.269100 12553.218301,14964.599509 12555.918133,14921.559711 12561.298113,14889.270236 12563.988177,14854.300471 12585.507801,14808.560849 12596.267902,14749.371785 12612.407565,14609.473189 12607.027602,14528.763797 12590.887978,14410.384954 12642.007029,14305.465897 12650.077210,14265.106390 12652.137480,14195.806850 12660.837181,14122.537695 12660.837190,14068.728037 12655.457224,14006.848912 12655.457229,13974.569063 12668.907383,13947.669474 12706.576838,13923.449471 12736.166631,13915.380009 12768.456109,13901.929864 12787.285673,13872.330450 12795.355851,13848.120210 12816.875471,13831.980572 12862.615099,13815.840938 12878.755169,13797.001048 12900.274933,13759.341227 12956.774524,13659.792095 12991.754065,13619.442785 13034.793444,13595.233117 13072.463468,13552.183556 13189.382149,13393.615096 13607.838360,13127.107442 14062.513927,13533.353578 14110.923083,13546.803592 14153.972652,13544.113682 14213.162289,13522.593933 14266.971951,13509.134165 14307.321271,13492.993963 14363.820990,13479.544388 14423.010204,13455.334156 14525.239216,13444.564454 14600.568494,13431.114882 14643.618065,13409.595130 14670.517802,13388.074951 14724.327471,13323.505777 14778.136568,13296.595859 14918.035741,13269.696147 14993.084873,13256.986365 15320.231856,12901.290165 15501.969680,12986.969033 15745.817553,12795.981022 15708.367700,12515.103721 15851.306613,12279.676015 15666.328391,11894.589693 15558.709647,11830.690214 15558.709649,11815.560743 15567.119713,11785.291042 15583.939277,11707.931664 15621.559063,11551.753287 15670.746981,11271.112404 15678.188354,11228.656257 15736.957736,10957.949041 15750.407914,10756.150938 15768.907797,10641.812072 15768.907805,10579.592498 15762.187978,10514.003377 15763.867733,10453.463974 15761.410692,10381.463759 15758.818038,10305.485152 15760.497800,10199.546292 15536.849701,9980.938088 15197.953072,9743.390884 15091.465267,9558.819159 15091.034218,9558.072148 15012.689299,9541.838359 14864.986376,9511.232715 14867.249915,9506.137983 15378.560609,8355.042590 15383.481932,8343.963990 15349.042028,8312.384716 15341.141872,8270.445118 15234.073099,8141.656392 14839.447209,8275.905002 14825.697093,8288.504659 14807.377428,8316.004460 14753.547795,8416.833715 14722.627758,8479.852531 14710.028097,8493.602644 14690.288167,8502.432566 14493.500267,8572.222015 14440.820677,8586.811853 14286.282109,8636.511161 14253.422712,8651.050890 14241.002831,8669.020896 14237.842789,8705.850613 14245.962506,8732.340248 14310.601751,8806.419275 14359.671415,8882.248827 14377.511318,8967.008099 14377.511315,8989.307992 14359.671397,9009.387519 14337.371926,9020.537745 14079.004441,9084.056800 13998.345163,9065.147249 13924.735697,9056.227281 13880.136335,9058.456981 13833.296505,9071.836910 13748.537229,9096.366638 13677.157889,9120.906560 13572.328992,9140.976165 13498.729713,9167.745793 13445.200056,9192.275526 13425.120668,9187.815544 13380.520749,9118.676244 13318.061519,9069.606561 13266.762142,9040.607208 13184.242915,9007.157498 13130.713260,9009.387338 13090.563683,9020.537562 13054.874082,9042.836883 13024.513211,9066.055918 13016.954632,9071.836789 12923.275395,9118.676176 12889.825695,9127.596128 12845.216141,9125.366415 12771.606534,9111.986468 12735.927272,9100.836658 12689.087873,9076.296718 12655.627983,9067.376756 12622.168095,9045.067091 12584.258986,9031.687149 12548.568823,9027.227165 12495.039732,9049.536818 12432.590120,9051.767081 12367.900611,9049.536798 12329.981162,9074.066533 12329.981158,9100.836597 12323.290902,9132.056021 12307.681257,9147.665802 12138.173026,9277.034599 12019.954304,9165.515865 11658.627633,9303.804165 11598.168201,9350.633789 11536.048846,9369.463904 11473.759477,9384.683539 11415.619932,9388.843402 11207.972151,9383.303574 11170.602098,9388.843364 11144.302434,9401.293107 11126.302838,9415.143018 11090.313127,9459.432641 11078.791159,9479.413219 11069.553256,9495.432533 11043.243396,9528.651767 11030.793647,9538.341807 10998.953763,9546.641728 10946.904257,9550.031649 10905.464925,9583.751719 10833.005334,9663.670487 10770.945847,9754.819891 10471.428757,10133.336354 10260.220988,10414.203422 10247.341302,10545.622310 10234.030856,10647.031117 10255.050892,10753.170287 10274.020726,10816.229597 10304.200237,10936.148044 10308.500532,10962.698124 10319.120334,10986.598068 10394.629343,11289.564909 10535.958339,11710.540564 10521.808309,11774.199940 10413.219272,11990.508177 10336.660096,12176.966442 10222.271075,12404.734074 10113.582231,12666.641509 9985.923389,13007.498178"/>
    <poly id="08029001" type="unknown" color="51,128,255" fill="1" layer="-1.00" shape="11580.953865,9178.524139 11582.428491,9183.535493 11609.418248,9236.564877 11658.627633,9303.804165 12019.954304,9165.515865 12138.173026,9277.034599 12307.681257,9147.665802 12323.290902,9132.056021 12329.981158,9100.836597 12329.981162,9074.066533 12367.900611,9049.536798 12432.590120,9051.767081 12495.039732,9049.536818 12548.568823,9027.227165 12584.258986,9031.687149 12622.168095,9045.067091 12655.627983,9067.376756 12689.087873,9076.296718 12735.927272,9100.836658 12771.606534,9111.986468 12845.216141,9125.366415 12889.825695,9127.596128 12923.275395,9118.676176 13016.954632,9071.836789 13024.513211,9066.055918 13054.874082,9042.836883 13090.563683,9020.537562 13130.713260,9009.387338 13184.242915,9007.157498 13266.762142,9040.607208 13318.061519,9069.606561 13380.520749,9118.676244 13425.120668,9187.815544 13445.200056,9192.275526 13498.729713,9167.745793 13572.328992,9140.976165 13677.157889,9120.906560 13748.537229,9096.366638 13833.296505,9071.836910 13880.136335,9058.456981 13924.735697,9056.227281 13998.345163,9065.147249 14079.004441,9084.056800 14337.371926,9020.537745 14359.671397,9009.387519 14377.511315,8989.307992 14377.511318,8967.008099 14359.671415,8882.248827 14310.601751,8806.419275 14245.962506,8732.340248 14237.842789,8705.850613 14241.002831,8669.020896 14253.422712,8651.050890 14286.282109,8636.511161 14440.820677,8586.811853 14493.500267,8572.222015 14690.288167,8502.432566 14710.028097,8493.602644 14722.627758,8479.852531 14753.547795,8416.833715 14807.377428,8316.004460 14825.697093,8288.504659 14839.447209,8275.905002 15234.073099,8141.656392 15341.141872,8270.445118 15349.042028,8312.384716 15383.481932,8343.963990 15469.351348,7120.666179 15561.470064,6839.258761 15480.210721,6781.519538 15446.321341,6766.989709 15334.962453,6693.159962 15301.072930,6676.210453 15235.713141,6638.690906 15222.403421,6625.381041 15169.473844,6589.621224 15104.994700,6533.391879 15065.284955,6504.482136 14986.635833,6433.432484 14950.056397,6396.612953 14918.586555,6373.613044 14880.446991,6331.953589 14829.017100,6277.994438 14807.747338,6265.354290 14797.547823,6258.634310 14773.817899,6226.914752 14734.608286,6183.585034 14703.138585,6160.585266 14633.199489,6080.936149 14618.589260,6069.976457 14597.899470,6040.766610 14572.339745,6013.986633 14557.729940,6003.036709 14544.340238,5989.647004 14533.390176,5975.037196 14494.430415,5936.087618 14467.651152,5911.737654 14444.530925,5883.747909 14387.321577,5833.838638 14351.472304,5807.348574 14331.322140,5782.719032 14325.072281,5777.142854 14207.163433,5671.949857 14146.304109,5631.780314 14126.244117,5612.940420 14076.924738,5570.920977 14061.094830,5562.400923 13969.805563,5494.231725 13907.726136,5454.062182 13883.986583,5441.082149 13846.866954,5415.112600 13830.587028,5406.972493 13649.828618,5608.430684 13561.405061,5699.989757 13498.950344,5764.658729 13354.931767,5930.337297 13325.131047,5965.825166 13278.852354,6020.936315 13133.503539,6202.274637 12992.304968,6386.383000 12920.325688,6484.661913 12881.566072,6577.410803 12876.026271,6613.400504 12837.266793,6732.449621 12430.730310,7185.064902 12391.750568,7284.674056 12371.640872,7371.263122 12354.751239,7423.552709 12327.731172,7479.832153 12281.701764,7541.531772 12177.603022,7633.430728 12066.224003,7754.029629 12012.234132,7802.479121 11994.244726,7826.008881 11974.864640,7839.848600 11945.795081,7837.078697 11907.035621,7838.468807 11920.875339,7857.848327 11923.645234,7882.768206 11919.495409,7903.528070 11884.475518,7982.347066 11879.345814,8025.346944 11866.885870,8055.796282 11848.895897,8086.255954 11825.366128,8116.705857 11801.826170,8129.165793 11781.066867,8152.695553 11776.916617,8174.845392 11830.896278,8246.824805 11861.355808,8273.124471 11864.125703,8292.503988 11861.355803,8309.114032 11855.816005,8322.964086 11846.125960,8336.803806 11822.596189,8388.023201 11832.286223,8440.622524 11832.286219,8461.392723 11801.826110,8518.142144 11778.296344,8536.141876 11799.056206,8558.291860 11814.286040,8584.591523 11818.066103,8612.491092 11806.117187,8658.265538 11803.766021,8667.270430 11796.296478,8705.010092 11774.146632,8742.389907 11761.686690,8753.459729 11700.777244,8779.759380 11666.167319,8800.529433 11630.177748,8855.898647 11619.107779,8879.428408 11606.647979,8893.268128 11580.348317,8894.658239 11559.578684,8887.738517 11529.128777,8882.198292 11518.049183,8893.268114 11488.979190,8948.637754 11482.059605,8999.857293 11487.599254,9033.086724 11498.669217,9046.927014 11519.438707,9062.156854 11541.588688,9069.076435 11554.048625,9087.066404 11580.953865,9178.524139"/>