<?xml version="1.0" encoding="UTF-8"?>

<!-- generated on 02/22/21 18:44:55 by Eclipse SUMO polyconvert Version v1_8_0+0719-6455967092
<configuration xmlns:xsi="http://www.w3.org/2001/XMLSchema-instance" xsi:noNamespaceSchemaLocation="http://sumo.dlr.de/xsd/polyconvertConfiguration.xsd">

    <input>
        <net-file value="../../data/simulations/20210222_ALT_PENEDES/ALT_PENEDES.net.xml"/>
        <shapefile-prefixes value="..\..\data\ATM\proc\shp\EMO96_IDESCAT_ALT_PENEDES\EMO96_ALT_PENEDES"/>
        <shapefile.id-column value="CZT"/>
    </input>

    <output>
        <output-file value="..\..\data\ATM\proc\shp\EMO96_IDESCAT_ALT_PENEDES\EMO96_ALT_PENEDES.poly.xml"/>
    </output>

    <projection>
        <proj.utm value="true"/>
    </projection>

    <processing>
        <offset.x value="0"/>
        <offset.y value="0"/>
    </processing>

</configuration>
-->

<additional xmlns:xsi="http://www.w3.org/2001/XMLSchema-instance" xsi:noNamespaceSchemaLocation="http://sumo.dlr.de/xsd/additional_file.xsd">
    <location netOffset="-371784.68,-4563325.86" convBoundary="0.00,0.00,37918.25,35170.61" origBoundary="1.454604,41.212451,1.920113,41.530540" projParameter="+proj=utm +zone=31 +ellps=WGS84 +datum=WGS84 +units=m +no_defs"/>

    <poly id="08013001" type="unknown" color="51,128,255" fill="1" layer="-1.00" shape="23121.966908,17408.769662 22969.978106,17481.088901 22726.960606,17666.746996 22638.111663,17718.246510 22569.361933,17748.816153 22434.403612,17802.316033 22294.344749,17873.655258 22088.086503,17950.084239 21986.227669,17978.103675 22238.325194,18360.250258 22260.925180,18400.929696 22197.575505,18497.819188 22116.095995,18616.277835 22207.765205,18645.577314 22261.245016,18682.517321 22308.354214,18729.646932 22332.543914,18776.776111 22341.454229,18825.185692 22338.903881,18854.475374 22322.343939,18887.194900 22281.284549,18924.404690 22347.413688,19018.913897 22422.983159,19109.633273 22509.892263,19207.921987 22613.801120,19321.341169 22683.710338,19379.930324 22712.050288,19410.170305 22734.719924,19444.200120 22757.389980,19491.449624 22802.729255,19550.048963 22840.519022,19576.508880 22984.107471,19703.147339 23018.117309,19739.067262 23080.456760,19814.666505 23114.466030,19856.255892 23137.136091,19889.785859 23128.635996,19900.185536 23089.906539,19929.975479 23020.947013,19972.954808 22895.518492,20013.244202 22895.938190,20098.533326 22927.657879,20123.693299 22951.737458,20127.393534 22964.707296,20126.473400 22996.197104,20112.573243 23028.606910,20092.183568 23047.136506,20083.843728 23059.176580,20082.923736 23082.326393,20094.963816 23105.485969,20121.833260 23117.526036,20141.293186 23130.485680,20144.073280 23154.565829,20136.663206 23165.685346,20118.133618 23168.465440,20107.013542 23171.245676,20091.253848 23166.615690,20072.723830 23154.565855,20056.043994 23147.165970,20040.293923 23150.865635,20029.174414 23160.125621,20020.834572 23191.615426,20018.054491 23204.585262,20022.694113 23221.255323,20036.594285 23234.225154,20055.124023 23244.404558,20085.703883 23275.894347,20132.023626 23301.834021,20134.803158 23320.353988,20132.953404 23358.323549,20118.133677 23404.163401,20103.303761 23443.062727,20083.843851 23460.662561,20067.164166 23476.402441,20056.974424 23495.852596,20056.974430 23527.342254,20070.874040 23525.032148,20052.864113 23518.662394,20032.664398 23499.522545,20009.264582 23498.462269,19989.054677 23499.522554,19979.484961 23504.302603,19967.254917 23514.402180,19956.085297 23530.352418,19943.325257 23546.831947,19932.695265 23567.021894,19932.155079 23585.631465,19940.135086 23628.151023,19965.125049 23637.721305,19968.314815 23668.010966,19967.784967 23680.240447,19964.595207 23688.740539,19960.875022 23696.180352,19950.235259 23701.500453,19930.035548 23700.970602,19908.765786 23696.710368,19895.995547 23655.791149,19848.676390 23649.941059,19833.786578 23649.411204,19823.676246 23652.070974,19806.136864 23656.851023,19793.896486 23677.050743,19772.096872 23691.930365,19762.527161 23717.440550,19752.956887 23749.339887,19751.897181 23829.059484,19771.566920 23848.198917,19768.377303 23863.608962,19759.867450 23874.238965,19744.447077 23878.488592,19723.567455 23877.958598,19707.077595 23835.969490,19594.878536 23830.129171,19570.948866 23833.849372,19527.349486 23845.539230,19518.309631 23861.488900,19511.389493 23872.648756,19510.859638 23921.018548,19543.299180 23935.368167,19544.889465 23949.187928,19543.299189 23984.267826,19544.359481 23997.017543,19528.939251 24026.357347,19504.549806 24076.256999,19457.000359 24089.127042,19439.920201 24104.626554,19427.830445 24121.956573,19418.900868 24139.556402,19416.800552 24178.415799,19425.990475 24187.875948,19426.260716 24195.755583,19424.420584 24244.865184,19397.620809 24255.625279,19385.001194 24253.524965,19363.461053 24229.365554,19335.081591 24233.565493,19315.641630 24249.845286,19289.891935 24272.964954,19280.961651 24303.424634,19262.562162 24306.894970,19258.482131 24403.743876,19201.082837 24415.303783,19185.323146 24474.123270,19073.914020 24491.983146,19069.714234 24507.742980,19077.074067 24563.422335,19145.383410 24601.241832,19162.202973 24620.151939,19156.943330 24636.951536,19140.133551 24640.111577,19127.513368 24639.051730,19093.884032 24632.751624,19071.813890 24636.951569,19033.984623 24646.411722,19020.314352 24672.671327,19000.354732 24734.650962,18986.685043 24758.810523,18987.735140 24777.720485,18992.994936 24819.739912,19023.474441 24859.659590,19032.934601 24900.628936,19035.034368 24916.738853,19023.964550 24925.899042,19007.354793 24942.508677,18953.495598 24956.258795,18941.455529 24971.148608,18934.585502 24991.768189,18930.575548 25008.948151,18931.145472 25046.747838,18921.405755 25061.637652,18911.665607 25060.487633,18873.846105 25053.617749,18854.366221 25043.307680,18841.186448 25036.437796,18822.856453 25040.447760,18810.246604 25041.017540,18801.076653 25049.037468,18780.446885 25056.477847,18767.277310 25070.797318,18754.667464 25085.117211,18750.087164 25099.437245,18748.367360 25110.887014,18750.087172 25125.776822,18759.247218 25141.816661,18767.847255 25161.286776,18767.847261 25191.066400,18758.107541 25205.386437,18746.077240 25220.846181,18700.237824 25273.535560,18615.718660 25291.295646,18580.189316 25299.305387,18537.219595 25309.615329,18504.559946 25402.974641,18467.320019 25418.214094,18500.550160 25427.164342,18509.510040 25442.584009,18514.479921 25454.523859,18511.499669 25499.293669,18471.680227 25576.892723,18424.900873 25595.802688,18419.430731 25632.112315,18421.420787 25655.492163,18428.880563 25662.451652,18456.260608 25672.902011,18456.260612 25683.851511,18448.290382 25689.811600,18438.340722 25696.281733,18416.940869 25698.271358,18403.000783 25717.171137,18375.631079 25729.111411,18374.641440 25737.571015,18378.121403 25765.430797,18403.000803 25774.470510,18414.900593 25796.270837,18418.931086 25814.670339,18410.971051 25828.110157,18401.510907 25832.800032,18389.651041 25833.080182,18378.121432 25864.419941,18351.131679 25911.389298,18334.531700 25944.473349,18329.010459 25948.958950,18328.261893 25971.499069,18328.891699 26003.438898,18304.141844 26053.528372,18287.852166 26066.988150,18279.712490 26102.997816,18264.682405 26138.697187,18239.002787 26159.357259,18217.073080 26192.546770,18216.442725 26237.636212,18208.932858 26269.566271,18193.893004 26283.345973,18189.513436 26295.245760,18190.133471 26310.275430,18195.143271 26334.065237,18198.283354 26362.875317,18197.653140 26377.045157,18191.003379 26391.064663,18177.943373 26401.694663,18171.173286 26423.444739,18166.823306 26433.594568,18161.503781 26470.324072,18125.233945 26478.063851,18109.764025 26489.663678,18095.734335 26526.873491,18069.624235 26545.243268,18052.214810 26571.343338,18022.235032 26582.462855,18004.344868 26636.592450,17957.925352 26651.572437,17948.735587 26680.092037,17943.415926 26695.072021,17944.385614 26721.171514,17952.605707 26742.441276,17955.505705 26753.561355,17951.635467 26766.121097,17940.515960 26796.091263,17923.596194 26846.940493,17886.246120 26875.980328,17871.716729 26941.809682,17843.626643 26968.909586,17821.356912 27015.378672,17800.047244 27053.128676,17774.867332 27103.468014,17721.597885 27117.988215,17710.948357 27124.768077,17700.288068 27137.347778,17691.578473 27184.787113,17675.108729 27253.516877,17663.488543 27267.066261,17659.618872 27288.366321,17647.998530 27325.155696,17639.278750 27371.615721,17623.779256 27488.754519,17546.300014 27539.093854,17501.750358 27566.193759,17473.660826 27594.273113,17457.200703 27611.693305,17449.450601 27646.542745,17445.580936 27665.902870,17439.770909 27682.362439,17429.111048 27707.532179,17398.121666 27719.152390,17388.441255 27744.321983,17375.841604 27853.710814,17298.362501 27956.330011,17114.354098 27983.429933,17032.994962 28045.389065,16938.086030 28047.952146,16929.146114 28051.579050,16916.496204 28052.148973,16902.456318 28070.099027,16883.366580 28090.298743,16872.146709 28110.498467,16838.456934 28108.818587,16807.587163 28115.548343,16773.907717 28113.868460,16758.747528 28126.768236,16721.137822 28142.488441,16703.728538 28185.127918,16668.368649 28207.007525,16652.648881 28238.997464,16633.559147 28272.096947,16620.089049 28300.716917,16602.689394 28338.876456,16563.949767 28353.466309,16539.809746 28365.816120,16525.210278 28388.255876,16516.230449 28443.245151,16507.250487 28476.625206,16487.700543 28487.015122,16476.940456 28492.624993,16465.710813 28483.645160,16452.231076 28438.755464,16442.130924 28421.245811,16434.020825 28389.385831,16428.660801 28378.156330,16420.801122 28371.426173,16374.761534 28375.916324,16307.401933 28383.766237,16290.562425 28397.235781,16286.072298 28417.435493,16289.442273 28448.865410,16314.142318 28473.545055,16336.591845 28490.385132,16339.961819 28513.954815,16336.591857 28527.414593,16327.612025 28544.254678,16304.032014 28564.454408,16248.462638 28568.944126,16208.043254 28562.204193,16191.203175 28544.254718,16168.743457 28521.804775,16159.763614 28484.775177,16157.513937 28449.985616,16163.133562 28394.995917,16168.743413 28359.086055,16168.743403 28342.246547,16155.273855 28346.736260,16131.693983 28347.856571,16103.624403 28334.396664,16072.194477 28316.436994,16062.084706 28207.578053,16030.644984 28160.448465,16001.455228 28143.608392,15982.365480 28142.488661,15964.405665 28149.228602,15953.175599 28163.808119,15938.585758 28190.747773,15929.605930 28270.427037,15909.395907 28297.806943,15895.186016 28305.416768,15886.876325 28308.536889,15872.676194 28297.806955,15855.356368 28285.687045,15844.966452 28250.037384,15796.487217 28229.957437,15772.587271 28223.377897,15734.837840 28220.957679,15644.018689 28210.918000,15595.189243 28200.878312,15575.099519 28184.258363,15562.629383 28165.228499,15560.549724 28118.489034,15579.949187 28067.259304,15577.179274 28045.799570,15571.639472 28030.569737,15558.479658 28017.409932,15541.159406 28012.570168,15476.750331 28013.949970,15410.941091 28020.870123,15379.771357 28055.489701,15269.472335 28090.109267,15205.062847 28094.258951,15187.743025 28094.949205,15157.263534 28092.879187,15129.563566 28071.839326,15100.193896 28070.869505,15085.653738 28070.709261,15081.594232 28078.079427,15065.444260 28090.349397,15052.004449 28099.259167,15035.594574 28101.839096,15020.604824 28110.629108,14998.114962 28133.618692,14952.625200 28138.009029,14935.305520 28137.758615,14917.335514 28150.158679,14903.375896 28180.128277,14889.415858 28200.788344,14882.695886 28218.878111,14882.695892 28235.928121,14885.286155 28268.477635,14903.375931 28287.597671,14908.025888 28322.217217,14909.065795 28385.026659,14941.775577 28444.825699,14957.795476 28488.605279,14984.505246 28515.305269,14990.914933 28549.474796,14993.055042 28565.494672,15010.144977 28579.374310,15019.764809 28734.163325,14868.736564 28757.932617,14834.616732 28773.432843,14799.467192 28799.272731,14753.977432 28878.296596,14656.138362 28924.091437,14623.988622 28978.580592,14580.649302 29061.020004,14499.580098 29086.169643,14466.030610 29150.438879,14396.131022 29217.508721,14359.791689 29278.988090,14323.442021 29339.067147,14298.282076 29400.546943,14249.362618 29432.676184,14207.423034 29406.137007,14200.433235 29368.406970,14203.232849 29353.037415,14200.433220 29340.467486,14193.443001 29333.477132,14180.863301 29333.477137,14162.693553 29371.207192,14099.784315 29372.597171,14084.414194 29365.617150,14076.024093 29341.857500,14057.854480 29329.147294,14021.104884 29319.417904,14005.615000 29291.987754,13983.045288 29255.258282,13913.985827 29240.218425,13893.625865 29202.608867,13855.556501 29171.639301,13837.526464 29153.939108,13832.216698 29123.849612,13833.986609 29077.829995,13796.807087 29074.290017,13782.637106 29083.139907,13764.937340 29100.839540,13747.227525 29118.539739,13733.057551 29122.079728,13710.048022 29136.239382,13681.718260 29159.249485,13664.008306 29175.179199,13642.758508 29161.019553,13642.758504 29130.929489,13649.838318 28989.340946,13688.798040 28964.561356,13678.168035 28964.561363,13656.928426 28991.110886,13623.278573 29014.120421,13607.348872 29056.600213,13589.639065 29207.028873,13554.229520 29268.978356,13534.749657 29343.307663,13488.720285 29437.106816,13391.331097 29534.445661,13320.501755 29649.484837,13269.152301 29676.034352,13262.072486 29803.463242,13247.912311 29867.172310,13231.972855 29895.212313,13203.303212 29910.201926,13191.532957 29935.011680,13160.213175 29970.091593,13107.503309 29867.982544,12446.270378 29944.951786,12438.250622 29997.871601,12425.420520 30058.810773,12402.960826 30122.960245,12346.011681 30155.030029,12307.511713 30198.329464,12249.752558 30285.338981,12185.903237 30341.048088,12171.133203 30392.367993,12169.533169 30458.117359,12156.693445 30551.535988,12100.043707 30597.625700,12057.224617 30700.264972,11952.945581 30774.034127,11908.025754 30801.293848,11895.185877 30855.813161,11829.406805 30984.442245,11636.528708 31046.251307,11594.379200 31086.341015,11544.639398 31122.940987,11519.639692 31214.630029,11499.720152 31309.239014,11509.349774 31468.107589,11511.229874 31789.914299,11507.530163 31129.420843,11158.343376 30929.192867,11357.921470 30871.663155,11395.350815 30770.834305,11446.260448 30579.575994,11574.249000 30497.466833,11684.627846 30315.298519,11717.997649 30217.799721,11761.636921 30112.600668,11720.557555 29979.171800,11640.988396 29912.462398,11579.378928 29871.542759,11514.839466 29795.053823,11545.709073 29582.745748,11621.738291 29510.906181,11705.167298 29491.666521,11721.847549 29400.577395,11786.026702 29214.559379,11778.326652 29105.510598,11781.526576 28991.331577,11706.447128 28947.051725,11680.877620 28838.998219,11790.426636 28781.083314,11855.485734 28739.593869,11889.415588 28702.434313,11907.945310 28629.764804,11917.024924 28587.495510,11936.744879 28547.735927,11959.034566 28443.266990,12082.373616 28047.230647,12077.443542 27995.510980,12072.493610 27956.001263,12049.433815 27794.673250,11980.264326 27735.413410,11967.084539 27541.165533,11983.554238 27455.556338,11996.733982 27365.787266,12026.523909 27273.688121,12060.753288 27220.248644,12059.953601 27182.248800,12046.663687 27062.750239,12010.723638 26991.960782,12023.073422 26930.231587,11974.494380 26919.531364,12013.193528 26866.852171,12122.712832 26801.012743,12233.881727 26785.372795,12275.881196 26762.323193,12308.820845 26730.223263,12325.290734 26698.123620,12327.760516 26631.864361,12322.610414 26597.294498,12337.030236 26561.074890,12384.380087 26561.895081,12403.729875 26539.155353,12433.639582 26512.475317,12451.429375 26356.826794,12464.779110 26272.327568,12478.128726 26163.368950,12515.948759 26108.339184,12542.638115 26006.050131,12638.297158 25939.340845,12662.766855 25901.191087,12657.026883 25824.592049,12582.107691 25741.443037,12535.968138 25676.953698,12531.518474 25634.703811,12507.048602 25489.585534,12362.079730 25442.155844,12319.900036 25363.096634,12267.170742 25276.127632,12230.251252 25191.788243,12190.701584 25135.638905,12143.452212 24978.420453,12261.590910 24801.321928,12383.409302 24710.923045,12451.698640 24622.963824,12444.758934 24473.975271,12415.838960 24409.495696,12424.738937 24345.006348,12449.208635 24273.857471,12464.778475 24220.487636,12482.578452 24098.188891,12422.509135 24073.729358,12444.758765 24089.219224,12495.988074 24118.738774,12579.047499 24122.428797,12619.647090 24144.558236,12669.486285 24151.938569,12737.775652 24198.057966,12833.745039 24234.587274,12894.354521 24228.927710,12924.584158 24228.927703,12947.253803 24221.367565,12958.593436 24210.037655,13090.852470 24381.145732,13190.551284 24472.765231,13294.210346 24503.304727,13351.229733 24558.264248,13428.619277 24649.863225,13518.228261 24747.562012,13595.607626 24759.782282,13622.087494 24750.092360,13695.666799 24721.102597,13839.985294 24727.212155,13890.894534 24737.392264,13929.594255 24790.311503,13949.954230 24877.840648,14013.083772 24951.119844,14039.563093 25075.299068,14102.692647 25160.787916,14159.712051 25254.427197,14237.101606 25429.485496,14338.920560 25160.787749,14705.486924 25117.068381,14978.384327 25074.468402,15004.853986 25030.069206,15009.773737 24936.409935,15028.633559 24918.860357,15039.233257 24911.540303,15052.123252 24882.770279,15071.892897 24830.740876,15077.012952 24773.911465,15093.673231 24734.941927,15112.432704 24700.022265,15141.252398 24623.402809,15173.882298 24774.031668,15490.538963 24738.871920,15525.668961 24719.941852,15536.398893 24675.782317,15537.658902 24646.142419,15526.298731 24632.262774,15540.188560 24630.372947,15557.858601 24617.752755,15579.938363 24606.393155,15594.457991 24589.992899,15605.187925 24519.973951,15619.067544 24485.914128,15631.057494 24451.214600,15633.587720 24432.924669,15631.057478 24444.914484,15645.577538 24471.404112,15663.877386 24501.054202,15677.767228 24517.454026,15689.757194 24538.903417,15725.726800 24551.513405,15738.976787 24566.653632,15748.446707 24581.163069,15757.286262 24619.012721,15765.486400 24675.782240,15788.835973 24707.322157,15785.676372 24726.881878,15790.096012 24746.441594,15809.036132 24775.451262,15843.585614 24786.811421,15852.425734 24806.360948,15863.155679 24828.440715,15863.155685 24860.610432,15856.215592 24879.540355,15857.475620 24897.200062,15861.255693 24933.789835,15860.625339 24947.659710,15854.945828 25018.628956,15817.085864 25047.648829,15810.136001 25062.158269,15810.136006 25085.288124,15816.306173 25219.236806,15873.245610 25244.466835,15894.705353 25262.126531,15935.095158 25296.186026,16068.883617 25234.386595,16089.503601 25186.427024,16120.632837 25166.247252,16182.482365 25128.397456,16181.222331 25148.577735,16316.281001 25117.037817,16323.221095 25077.928000,16319.431248 25088.677892,16339.820937 25116.437684,16524.128919 25116.957910,16543.398868 25112.217780,16557.489006 25069.098135,16585.758314 25011.068571,16632.457833 24940.419387,16685.467229 24882.559828,16759.186805 24618.772297,16864.965474 24518.383420,16887.405620 24447.904120,16900.225382 24263.936152,16942.414773 24079.177559,17031.104101 24009.758253,17056.743788 23930.729305,17106.963182 23891.209382,17125.122725 23758.790494,17198.842278 23680.821407,17235.171839 23600.182081,17267.231395 23308.635273,17352.700632 23164.956600,17387.920204 23121.966908,17408.769662"/>
    <poly id="08027001" type="unknown" color="51,128,255" fill="1" layer="-1.00" shape="18506.181996,16708.365164 17799.678970,17205.289982 17885.818007,17245.279904 17957.767108,17272.879529 18017.726248,17302.869102 18041.706169,17307.668973 18099.265593,17325.658958 18148.425294,17336.459126 18170.015123,17336.459133 18211.984866,17353.258597 18289.923783,17374.848451 18345.683133,17394.638649 18403.833000,17420.428430 18471.591931,17463.017663 18402.632819,17537.997258 18344.263365,17597.046723 18315.453410,17650.885954 18266.574264,17690.005523 18235.774123,17738.225118 18215.254321,17804.914570 18210.364265,17863.593733 18210.364246,17922.273464 18277.733628,17894.693419 18322.783573,17892.933706 18381.433005,17914.943419 18435.202308,17941.833400 18540.281037,17980.952877 18645.369968,17988.292921 18730.909465,18134.991214 18750.458983,18171.660832 18774.899082,18276.800023 18785.138922,18336.789468 18879.858050,18319.569616 18980.396989,18272.229978 19073.046097,18235.230704 19184.444922,18201.230802 19351.033342,18116.951760 19302.733794,17994.132894 19191.875126,17700.395735 19106.855840,17615.346670 19051.406226,17582.056635 19010.746763,17552.477167 19064.346507,17488.678090 19117.945703,17368.488727 19163.885518,17288.769567 18819.493753,17025.130038 18707.639712,16939.502834 18506.181996,16708.365164"/>