<?xml version="1.0" encoding="UTF-8"?>

<!-- generated on 02/22/21 17:03:38 by Eclipse SUMO polyconvert Version v1_8_0+0719-6455967092
<configuration xmlns:xsi="http://www.w3.org/2001/XMLSchema-instance" xsi:noNamespaceSchemaLocation="http://sumo.dlr.de/xsd/polyconvertConfiguration.xsd">

    <input>
        <net-file value="../../data/simulations/20210222_GARRAF/GARRAF.net.xml"/>
        <shapefile-prefixes value="..\..\data\ATM\proc\shp\EMO96_IDESCAT_GARRAF\EMO96_GARRAF"/>
        <shapefile.id-column value="CZT"/>
    </input>

    <output>
        <output-file value="..\..\data\ATM\proc\shp\EMO96_IDESCAT_GARRAF\EMO96_GARRAF.poly.xml"/>
    </output>

    <projection>
        <proj.utm value="true"/>
    </projection>

    <processing>
        <offset.x value="0"/>
        <offset.y value="0"/>
    </processing>

</configuration>
-->

<additional xmlns:xsi="http://www.w3.org/2001/XMLSchema-instance" xsi:noNamespaceSchemaLocation="http://sumo.dlr.de/xsd/additional_file.xsd">
    <location netOffset="-383929.28,-4561266.10" convBoundary="0.00,-229.29,29206.73,16179.43" origBoundary="1.615435,41.192753,1.962947,41.341658" projParameter="+proj=utm +zone=31 +ellps=WGS84 +datum=WGS84 +units=m +no_defs"/>

    <poly id="08043001" type="unknown" color="51,128,255" fill="1" layer="-1.00" shape="6391.594993,8531.775499 6375.105105,8620.564676 6379.295249,8685.493840 6399.135105,8723.943570 6430.094333,8751.192962 6543.493499,8822.632773 6568.703143,8841.542318 6600.203128,8873.051948 6608.602815,8988.610770 6614.902869,9169.298919 6627.502511,9219.718647 6638.322598,9294.238054 6636.102504,9337.427335 6622.822348,9401.657189 6626.142608,9468.046540 7011.268684,9834.582809 7052.418215,9896.252150 7103.177367,9998.761168 7147.247403,10095.150419 7314.015363,10304.638364 7342.585187,10391.497249 7362.824807,10432.006813 7400.434358,10482.646674 7465.514132,10515.926377 7501.663500,10556.445714 7517.573240,10579.595534 7529.143179,10624.445314 7539.273026,10686.664463 7547.943119,10721.384375 7546.502880,10753.223829 7478.523778,10860.292728 7423.574408,10915.272212 7374.394727,10970.251840 7310.765471,11072.980522 7300.635167,11112.050273 7293.405262,11200.679775 7306.425191,11259.998933 7333.905021,11301.958495 7375.844597,11358.388006 7439.483983,11450.997196 7436.583987,11466.906943 7439.483967,11500.186626 7520.472747,11637.645457 8002.068112,11811.273897 9046.967906,11767.864823 9722.301808,11505.597055 10105.208032,11169.230788 10164.297448,11132.641177 10389.095056,11032.722362 10484.754143,10998.952630 10476.354256,11061.781612 10471.134507,11127.611375 10488.494236,11171.010596 10518.863726,11202.850625 10588.283016,11223.100471 10789.311172,11214.420238 10835.590984,11221.660321 10865.700287,11253.320145 10914.789962,11113.621316 11028.439049,10973.552753 11067.968740,10948.833195 11051.498858,10894.453618 11005.379318,10803.824428 11239.266953,10517.097561 11377.625936,10531.927534 11412.215347,10475.067848 11348.425904,10393.138485 11331.506563,10359.718937 11318.326244,10306.989663 11315.036702,10239.420129 11324.916166,10188.340457 11361.156155,10155.380711 11415.515777,10127.371029 11436.925406,10110.891511 11492.924865,10051.562040 11555.514221,9955.163197 11585.163907,9899.133473 11682.343159,9549.787089 11611.623786,9529.247329 11522.274596,9508.807504 11236.327372,9462.837902 11210.797806,9432.187824 11103.568671,9317.249003 10761.462415,8987.752542 10675.303024,8858.773700 10574.944324,8811.463869 10632.333781,8678.165380 10650.783556,8606.385869 10540.094432,8456.687075 10529.844892,8179.840148 10522.544835,8076.091082 10447.855592,7964.511906 10210.647747,8026.101319 10167.248534,8015.881407 10097.339156,8026.031636 10023.539730,8001.421610 9849.311364,8013.731441 9716.072887,7970.661877 9617.683845,7935.802075 9519.294798,7915.292600 9351.206312,7886.582410 9162.128216,7840.643131 8738.549952,8092.643230 8713.392533,8107.610465 8440.945262,8139.669957 8128.428150,8069.520400 7872.010700,8005.390826 7799.891725,7991.361109 7597.563506,7941.251619 7479.764792,7918.201566 7230.966846,8119.629536 7112.777967,8178.749052 7012.468904,8290.917910 6978.009594,8323.227331 6391.594993,8531.775499"/>
    <poly id="08074001" type="unknown" color="51,128,255" fill="1" layer="-1.00" shape="5439.495393,1560.584180 5440.046914,1545.095290 5440.056540,1544.823354 5435.786547,1508.983707 5435.786554,1485.983946 5439.526725,1415.364938 5446.476604,1390.224939 5453.426346,1353.185294 5481.226122,1325.365436 5501.016319,1272.946474 5511.175931,1220.516608 5539.515779,1126.907472 5539.919366,1125.731961 5557.685543,1073.948317 5556.625696,1044.928449 5564.105431,1025.138838 5575.335504,1010.699051 5583.355429,995.178879 5597.255189,941.149673 5624.524979,873.220164 5634.144954,852.350313 5650.724852,832.560705 5687.104699,804.250912 5688.934505,786.011094 5696.224266,769.591452 5704.084511,759.961294 5718.784344,769.781432 5728.214337,777.731142 5733.083848,778.090988 5736.954089,775.431225 5738.514078,770.721395 5737.373817,766.591109 5728.274224,756.681506 5686.474359,729.851411 5626.145047,690.722182 5623.044892,689.231700 5617.975074,690.241868 5614.045093,696.421653 5615.795052,701.922095 5626.555140,709.001921 5645.094919,721.271892 5626.925306,745.891656 5608.685484,755.001013 5590.445663,760.481488 5570.905335,763.181166 5553.975794,756.831361 5537.556010,747.711234 5493.786063,709.411975 5482.846338,694.821703 5473.726647,678.412247 5468.256511,641.932609 5475.556606,623.692793 5491.986448,610.912794 5514.236221,628.962788 5521.726285,625.292715 5524.126006,617.952849 5470.986510,576.722878 5423.516871,631.002491 5395.307433,625.522567 5336.947784,581.753156 5322.357943,567.162882 5300.468160,537.983186 5300.238271,527.373573 5339.617916,478.714158 5335.307852,470.973817 5326.458110,467.984216 5270.208653,537.063179 5253.208900,528.263402 5223.988872,507.563550 5208.169301,499.043920 5182.859288,493.153898 5138.059773,467.084118 5120.000163,456.684008 5085.230571,440.614429 5008.541497,393.144785 4956.201805,374.884989 4880.732680,365.155004 4845.432661,356.625174 4818.443324,357.054799 4820.033054,309.015261 4807.533196,308.325578 4805.152996,358.554902 4789.433220,362.714910 4773.763558,362.174713 4758.893708,364.385021 4741.964021,370.014842 4723.703817,371.234939 4687.184260,368.805055 4650.664563,361.494762 4595.895561,359.064731 4556.945427,351.764770 4519.205767,349.325119 4482.686209,350.545209 4365.837785,334.715264 4309.838350,322.545080 4255.068642,315.245114 4217.328982,312.805462 4205.149189,317.674969 4140.639757,296.985298 3979.961498,267.765635 3965.361463,260.465541 3947.111877,259.255767 3917.902037,251.635743 3915.461832,251.735542 3895.902111,251.725768 3877.522573,249.275930 3860.472565,244.405848 3823.933049,238.305890 3788.563384,227.346189 3733.763526,213.946135 3681.294308,191.986112 3664.284363,182.256287 3610.734761,165.226220 3593.495347,155.366726 3582.325162,143.586696 3593.015184,133.616654 3592.944972,127.876693 3587.345298,125.076642 3571.255342,134.876669 3540.475735,164.976343 3529.975685,180.376189 3517.985856,207.416058 3498.816274,205.516038 3496.146176,205.055827 3500.595968,189.476340 3515.286051,148.876615 3524.935753,129.736764 3544.855893,106.877154 3543.385373,101.457259 3537.675707,98.476861 3513.595980,117.726840 3499.586247,116.246688 3481.046465,111.306958 3464.406555,105.236734 3431.036847,88.046994 3413.006965,75.667455 3400.077053,63.197321 3388.367244,48.167788 3377.937417,33.117588 3370.017302,16.757821 3352.227526,-56.531717 3346.507542,-106.010919 3414.957151,-104.041235 3426.236907,-104.501017 3431.706634,-113.961163 3430.116921,-120.000664 3425.817189,-123.620912 3397.417210,-125.470823 3133.699941,-128.800818 2650.384338,-226.510117 2635.774534,-229.289787 2631.204563,-227.960119 2628.184810,-219.199843 2632.344679,-210.870189 2635.794487,-208.730089 2639.814780,-208.200230 2647.244257,-211.669996 2653.664694,-210.879949 3090.730215,-118.371001 3173.779411,-39.491535 3201.029207,-5.472054 3219.759096,22.207534 3274.698079,120.926716 3267.968473,125.406793 3273.578330,156.816615 3275.918156,194.345775 3268.148089,194.645879 3262.768115,194.305851 3229.848856,156.816600 3217.508821,148.966689 3209.658912,154.576554 3089.690242,106.336951 3013.110723,94.417179 2945.621597,90.487036 2941.571696,151.456348 2793.932774,139.736292 2794.892878,1.457720 2776.903350,-39.001730 2753.273235,-72.731437 2735.423561,-93.091400 2718.513983,-106.771446 2700.283935,-117.071191 2654.264173,-134.430948 2648.084385,-127.810772 2647.494644,-117.810999 2689.403938,-100.061246 2710.703990,-89.971292 2718.903547,-84.011204 2723.773621,-76.711679 2724.473627,-57.481651 2718.403827,-41.801800 2690.584083,11.307405 2666.814226,40.137292 2656.694124,48.737320 2640.504227,57.847244 2600.545189,76.056896 2542.785452,86.247048 2489.165773,84.137083 2466.575969,78.006977 2347.007105,324.714249 2251.897935,490.412750 2216.252773,544.388722 2191.228553,582.281964 2174.309008,739.240175 2140.939231,922.848824 2114.989052,1431.013531 2120.708881,1934.148353 2611.024085,1916.098673 2587.694614,1546.932352 2682.233374,1576.602577 2806.442334,1591.442175 2832.392343,1585.882428 2873.171723,1558.062716 2904.691121,1528.382908 2978.840803,1439.363859 3045.579960,1402.273981 3091.919655,1394.854148 3114.169285,1418.964028 2732.293119,1978.138218 2663.703497,2421.383944 2389.346312,2857.689639 2586.453807,3748.720741 2162.807847,4507.373268 2196.317413,4533.903255 2242.376946,4574.402635 2567.243376,4816.540515 3826.661332,5303.421459 4464.134928,5549.863846 4519.624461,5576.293616 4921.893832,3799.171395 5184.099206,2640.815111 5396.506795,1702.451842 5451.536576,1627.382640 5445.518595,1619.340210 5440.596709,1612.763065 5438.456618,1589.752969 5439.495393,1560.584180"/>
    <poly id="08148001" type="unknown" color="51,128,255" fill="1" layer="-1.00" shape="19232.951548,8336.022260 19141.790827,8290.801855 19078.181580,8236.882051 19041.951810,8181.202668 19047.251391,8138.993264 19037.531794,8034.694238 19021.631827,7988.734489 18984.532161,7976.364713 18889.113177,7955.145036 18793.694198,7916.255318 18744.214430,7912.725090 18700.045127,7921.565194 18581.766089,7938.074978 18532.176892,7942.774602 18468.377235,7932.584837 18334.868755,8051.513586 18253.489210,8109.152970 18203.189803,8133.852990 18115.410780,8159.462519 18034.941612,8189.652214 18004.771705,8211.612211 17955.392424,8279.311257 17892.293041,8339.690815 17806.343940,8430.249893 17779.074025,8451.119882 17719.614553,8554.678531 17752.644340,8702.287171 17618.385348,8692.587323 17496.476561,9251.731890 17258.628905,9182.422095 17122.380310,9110.803208 17060.030653,9085.383183 17006.921438,9076.143144 16986.141583,9182.422015 16981.521203,9232.081987 16955.041879,9314.871014 16935.332090,9363.770664 16870.682472,9474.659553 16871.562537,9515.758849 16854.512630,9640.997511 16787.543120,9795.786311 16757.523243,9897.444955 16660.534452,10049.923634 16878.752254,10324.551252 16871.441941,10428.420215 16869.912066,10564.218666 16864.892474,10660.697934 16695.173779,10653.767548 16650.506330,10650.047914 16564.685228,10642.787719 16482.976013,10618.628276 16412.396498,10607.488219 16345.547356,10614.918240 16271.718046,10637.207917 16164.009264,10659.507352 16063.720202,10642.787571 15998.720834,10605.628003 15896.582003,10616.777776 15814.872644,10601.907761 15774.012873,10579.618050 15682.553762,10475.569418 15662.124161,10456.989142 15624.984577,10438.409286 14688.513293,10815.575714 14217.728182,10936.343928 14193.588171,10888.034710 14152.728408,10839.725345 14089.589141,10778.415560 14041.299899,10743.115949 13980.020298,10692.946625 13876.021266,10590.757517 13833.301977,10538.737731 13799.882016,10512.728401 13783.162278,10466.278712 13736.732570,10408.679211 13711.653029,10357.589761 13696.803145,10333.440105 13665.603258,10328.240185 13652.223749,10326.009909 13539.394898,10339.519903 13334.656745,10355.729694 13282.657071,10357.589630 13039.379609,10299.990210 12942.810601,10257.260543 12849.951759,10117.911889 12734.812690,10019.442964 12643.123674,9954.403215 12464.835318,9698.935989 12405.406054,9617.186832 12355.266352,9554.947146 11978.510285,9590.246484 11682.343159,9549.787089 11585.163907,9899.133473 11555.514221,9955.163197 11492.924865,10051.562040 11436.925406,10110.891511 11415.515777,10127.371029 11361.156155,10155.380711 11324.916166,10188.340457 11315.036702,10239.420129 11318.326244,10306.989663 11331.506563,10359.718937 11348.425904,10393.138485 11412.215347,10475.067848 11377.625936,10531.927534 11239.266953,10517.097561 11005.379318,10803.824428 11051.498858,10894.453618 11067.968740,10948.833195 11028.439049,10973.552753 10914.789962,11113.621316 10865.700287,11253.320145 10919.139734,11346.969087 10993.229060,11419.308355 11223.166871,11675.175930 11337.055595,11609.066620 11697.212331,11732.515944 11817.741070,11609.066769 12117.558095,11896.644292 11983.159463,12085.822298 12004.239238,12130.641787 12120.197930,12254.560448 12120.197895,12370.569286 12112.288084,12447.028622 12122.827902,12465.488569 12188.717124,12470.758572 12331.026045,12489.218560 12415.355223,12589.407284 12526.043953,12647.416904 12570.843467,12681.686810 12618.282914,12758.146163 12739.512005,12911.074502 12707.892241,12942.714206 12692.072091,12971.714110 12692.072064,13058.723040 12635.582521,13130.462196 12616.942777,13189.961691 12578.753078,13252.511084 12528.683523,13408.069408 12549.763428,13492.438539 12557.453501,13536.298109 12562.943127,13721.826609 12568.213079,13822.015309 12586.662674,13874.745293 12665.721890,13906.384465 12697.341636,13935.394717 12731.921386,13990.434110 12849.540301,14081.722848 12900.429564,14137.962388 12959.719123,14175.732361 12991.038905,14203.212212 13047.188243,14250.461584 13131.527632,14290.011252 13218.496634,14326.930742 13297.555844,14379.660036 13344.985534,14421.839730 13490.103811,14566.808602 13532.353698,14591.278474 13596.843037,14595.728138 13679.992049,14641.867691 13756.591087,14716.786883 13794.740845,14722.526855 13861.450131,14698.057158 13963.739184,14602.398115 14018.768950,14575.708759 14127.727568,14537.888726 14212.226794,14524.539110 14367.875317,14511.189375 14394.555353,14493.399582 14417.295081,14463.489875 14416.474890,14444.140087 14452.694498,14396.790236 14487.264361,14382.370414 14553.523620,14387.520516 14585.623263,14385.050734 14617.723193,14368.580845 14640.772795,14335.641196 14656.412743,14293.641727 14722.252171,14182.472832 14774.931364,14072.953528 14785.631587,14034.254380 14847.360782,14082.833422 14918.150239,14070.483638 15037.648800,14106.423687 15075.648644,14119.713601 15129.088121,14120.513288 15221.187266,14086.283909 15310.956338,14056.493982 15396.565533,14043.314238 15590.813410,14026.844539 15650.073250,14040.024326 15811.401263,14109.193815 15850.910980,14132.253610 15902.630647,14137.203542 16298.666990,14142.133616 16403.135927,14018.794566 16442.895510,13996.504879 16485.164804,13976.784924 16557.834313,13967.705310 16594.993869,13949.175588 16636.483314,13915.245734 16694.398219,13850.186636 16802.451725,13740.637620 16846.731577,13766.207128 16960.910598,13841.286576 17069.959379,13838.086652 17255.977395,13845.786702 17347.066521,13781.607549 17366.306181,13764.927298 17438.145748,13681.498291 17650.453823,13605.469073 17726.942759,13574.599466 17767.862398,13639.138928 17834.571800,13700.748396 17968.000668,13780.317555 18073.199721,13821.396921 18170.698519,13777.757649 18352.866833,13744.387846 18434.975994,13634.009000 18626.234305,13506.020448 18727.063155,13455.110815 18784.592867,13417.681470 18984.820843,13218.103376 19645.314299,13567.290163 19699.813645,13525.280513 19759.293207,13463.321005 19843.712484,13335.042224 19846.142359,13321.492702 19839.542295,13275.952820 19807.402897,13199.433593 19695.673897,12952.636207 19631.534677,12803.757767 19644.364349,12385.341570 19557.125576,12200.513485 19536.595625,12129.933821 19931.661874,11584.009581 20104.590316,11508.970136 20183.769880,11465.200765 20177.519888,11436.010881 20142.100120,11385.981852 20129.600271,11352.631953 20128.790269,11346.141867 20141.539982,11339.392307 20196.319480,11275.582897 20212.829161,11265.822788 20233.778997,11269.252643 20273.598869,11298.852493 20290.028848,11302.602413 20333.788055,11285.932361 20396.297557,11231.733154 20448.387412,11200.463492 20516.706516,11166.733812 20535.466425,11170.483732 20551.226257,11185.503640 20566.976177,11207.273677 20575.235612,11223.783357 20583.485971,11297.352473 20593.995638,11314.612419 20610.495684,11330.382310 20631.505401,11332.631982 20693.784580,11296.602522 20738.804243,11250.813226 20759.063850,11199.763709 20759.813980,11180.994033 20746.304529,11139.714387 20745.554410,11120.944144 20747.804085,11090.164548 20758.924170,11059.524673 20767.663927,11042.335088 20795.043836,11015.225432 20823.593733,10996.285751 20857.383457,10993.075471 20897.872919,10977.925627 20943.612544,10967.146014 21025.831806,10965.976189 21076.811115,10971.805771 21154.880130,10972.966016 21178.770302,10978.215903 21295.289183,10978.796048 21342.478660,10977.046101 21375.098392,10977.625655 21393.087933,10981.325887 21706.015242,10720.588395 21566.016365,10437.241153 21394.688307,9323.152254 21468.927575,9294.592192 21525.606942,9240.853194 21537.797124,9044.724857 20538.696945,8229.882485 20674.626106,8067.844294 20646.356220,8066.074365 20573.466596,8043.974619 20480.257930,8003.765000 20425.928050,7982.985162 20366.288826,7986.525127 20333.599021,7991.824686 20305.339469,7988.734855 20283.249368,7990.504769 20258.509834,8001.995017 20219.640241,8010.834557 20200.200277,8017.904748 20111.851331,8056.794271 20092.421698,8073.593857 20077.401785,8108.063909 20042.061831,8150.483237 19999.652253,8168.162893 19971.382510,8161.093254 19938.693134,8148.723480 19925.443150,8152.253124 19853.433712,8242.412300 19821.634166,8277.541874 19810.144472,8296.991458 19787.174287,8323.511236 19550.846667,8366.681056 19489.897168,8369.800730 19328.208585,8367.700929 19246.919662,8342.951042 19232.951548,8336.022260"/>
    <poly id="08231001" type="unknown" color="51,128,255" fill="1" layer="-1.00" shape="10375.417523,4862.212460 10218.758709,5274.658749 10056.210287,5741.833552 9720.193525,6251.678624 9630.594276,6440.066595 9498.295243,6671.824747 9291.787038,7109.590096 9096.778741,7456.916674 9095.199212,7479.786483 9114.138869,7583.095302 9165.788429,7693.674352 9174.188280,7742.704104 9165.788400,7784.723534 9162.128216,7840.643131 9351.206312,7886.582410 9519.294798,7915.292600 9617.683845,7935.802075 9716.072887,7970.661877 9849.311364,8013.731441 10023.539730,8001.421610 10097.339156,8026.031636 10167.248534,8015.881407 10210.647747,8026.101319 10447.855592,7964.511906 10522.544835,8076.091082 10529.844892,8179.840148 10540.094432,8456.687075 10650.783556,8606.385869 10632.333781,8678.165380 10574.944324,8811.463869 10675.303024,8858.773700 10761.462415,8987.752542 11103.568671,9317.249003 11210.797806,9432.187824 11236.327372,9462.837902 11522.274596,9508.807504 11611.623786,9529.247329 11682.343159,9549.787089 11978.510285,9590.246484 12355.266352,9554.947146 12405.406054,9617.186832 12464.835318,9698.935989 12643.123674,9954.403215 12734.812690,10019.442964 12849.951759,10117.911889 12942.810601,10257.260543 13039.379609,10299.990210 13282.657071,10357.589630 13334.656745,10355.729694 13539.394898,10339.519903 13652.223749,10326.009909 13665.603258,10328.240185 13696.803145,10333.440105 13711.653029,10357.589761 13736.732570,10408.679211 13783.162278,10466.278712 13799.882016,10512.728401 13833.301977,10538.737731 13876.021266,10590.757517 13980.020298,10692.946625 14041.299899,10743.115949 14089.589141,10778.415560 14152.728408,10839.725345 14193.588171,10888.034710 14217.728182,10936.343928 14688.513293,10815.575714 15624.984577,10438.409286 15662.124161,10456.989142 15682.553762,10475.569418 15774.012873,10579.618050 15814.872644,10601.907761 15896.582003,10616.777776 15998.720834,10605.628003 16063.720202,10642.787571 16164.009264,10659.507352 16271.718046,10637.207917 16345.547356,10614.918240 16412.396498,10607.488219 16482.976013,10618.628276 16564.685228,10642.787719 16650.506330,10650.047914 16695.173779,10653.767548 16864.892474,10660.697934 16869.912066,10564.218666 16871.441941,10428.420215 16878.752254,10324.551252 16660.534452,10049.923634 16757.523243,9897.444955 16787.543120,9795.786311 16854.512630,9640.997511 16871.562537,9515.758849 16870.682472,9474.659553 16935.332090,9363.770664 16955.041879,9314.871014 16981.521203,9232.081987 16986.141583,9182.422015 17006.921438,9076.143144 17060.030653,9085.383183 17122.380310,9110.803208 17258.628905,9182.422095 17496.476561,9251.731890 17618.385348,8692.587323 17752.644340,8702.287171 17719.614553,8554.678531 17779.074025,8451.119882 17806.343940,8430.249893 17892.293041,8339.690815 17955.392424,8279.311257 18004.771705,8211.612211 18034.941612,8189.652214 18115.410780,8159.462519 18203.189803,8133.852990 18253.489210,8109.152970 18334.868755,8051.513586 18468.377235,7932.584837 18442.777478,7822.805892 18462.887598,7775.236477 18504.856936,7719.477136 18566.566636,7626.038163 18581.576375,7532.608801 18584.906299,7477.539553 18569.016526,7425.199851 18373.528838,7077.523503 17783.100254,7036.428567 17702.855328,7030.843733 17645.105802,6974.344006 17424.997692,6916.104463 17004.291982,6629.486971 16930.512943,6593.247539 16714.544860,6626.617189 16594.172185,6542.778029 16590.826848,6540.921473 16349.718670,6407.139186 16285.589341,6328.400013 16189.400285,6267.160716 15927.052640,6133.011783 15728.824581,5993.023109 15727.517986,5992.417374 15556.396458,5913.093952 15471.756976,5836.884585 15460.367267,5705.155972 15432.127696,5633.866810 15403.308010,5571.647091 15313.808793,5470.648363 15283.199076,5440.028437 15224.899872,5393.368804 15203.040234,5383.159091 15169.880310,5384.618844 15146.560485,5371.489180 15115.950908,5346.709155 15094.091274,5323.369361 15057.651559,5310.249461 15047.156613,5301.850158 15028.501603,5286.919856 14961.462497,5270.880138 14855.063296,5257.760216 14830.283850,5243.539977 14811.333835,5214.380383 14827.373712,5093.351422 14826.904159,5092.749369 14780.734073,5033.572469 14706.394890,4975.242796 14658.305244,4951.912761 14588.346330,4932.963283 14550.446425,4925.663324 14525.666840,4903.793343 14520.130588,4890.410292 14508.177158,4861.513860 14495.067065,4766.004839 14464.457354,4717.885451 14414.908099,4652.266029 14377.008212,4588.836539 14362.438337,4553.107022 14357.328610,4520.307085 14357.328620,4486.037619 14352.958826,4452.307918 14309.969153,4418.768179 14302.679401,4404.918264 14303.409024,4323.989182 14308.509018,4243.059677 14298.309106,4154.840979 14290.289193,4129.330796 14278.629498,4106.001197 14272.799379,4057.151794 14229.499979,4004.432138 13803.884115,4253.319485 13495.156712,4604.156140 13151.970482,4796.073823 13005.101647,4766.084226 12983.122257,4732.074373 12780.304182,4418.237856 12666.405323,4308.788576 12648.425138,4263.809268 12642.425571,4215.829748 12620.115359,4174.890126 12575.676248,4167.859978 12537.446648,4171.110034 12390.657645,4170.849943 12327.708343,4140.869998 12270.759195,4092.890463 12213.809488,4017.921591 12183.839911,3963.941917 12138.880607,3835.003151 12078.931116,3739.043956 12042.961540,3667.074881 11846.643312,3377.707516 11825.663775,3287.748480 11820.902287,3249.044798 11813.673845,3190.289192 11831.163740,2999.321275 11827.163588,2867.932550 11815.173671,2729.993999 11820.513760,2618.385264 11860.893380,2574.635278 11822.853611,2582.245513 11806.114039,2588.325494 11793.944293,2603.544992 11775.684514,2602.024919 11760.464443,2611.155370 11742.204663,2614.195075 11725.474721,2606.585248 11705.694876,2603.544965 11669.175315,2611.155342 11653.955668,2621.804727 11635.705655,2627.884708 11617.445875,2629.404770 11580.926318,2627.884691 11562.666541,2618.754797 11544.406763,2617.235148 11526.146841,2621.804688 11471.377275,2609.624879 11469.857213,2591.375293 11463.767464,2574.635155 11447.027755,2568.545396 11450.077805,2548.765551 11432.197837,2527.535704 11346.858570,2634.364936 11305.689033,2721.643662 11241.359343,2822.542967 11116.740819,2906.872131 11080.341012,2934.881819 11035.541473,2985.311295 10982.331729,3049.740734 10951.532158,3094.560206 10912.721436,3159.277865 10892.732637,3192.609351 10864.733109,3257.038232 10839.533217,3290.657932 10699.524600,3408.316884 10683.912265,3422.373610 10643.525145,3458.736589 10609.925384,3497.955819 10587.525686,3517.565787 10579.533353,3572.539622 10565.125805,3671.644533 10576.325701,3738.873476 10598.725517,3789.293347 10637.175233,3815.722969 10669.824682,3848.012451 10670.088264,3852.155052 10671.524946,3874.742168 10660.324998,3975.581185 10656.629436,3994.068307 10646.325010,4045.620504 10609.925182,4138.059648 10598.725395,4177.279451 10553.925691,4300.538108 10461.526403,4457.416458 10453.126664,4502.235937 10436.896965,4589.844931 10375.417523,4862.212460"/>